/*--------------------------------*- C++ -*----------------------------------*\
| =========                 |                                                 |
| \\      /  F ield         | OpenFOAM: The Open Source CFD Toolbox           |
|  \\    /   O peration     | Version:  v2312                                 |
|   \\  /    A nd           | Website:  www.openfoam.com                      |
|    \\/     M anipulation  |                                                 |
\*---------------------------------------------------------------------------*/
FoamFile
{
    version     2.0;
    format      ascii;
    class       dictionary;
    location    "system";
    object      blockMeshDict;
}
// * * * * * * * * * * * * * * * * * * * * * * * * * * * * * * * * * * * * * //
// Generated by generate_cgrid.jl  (221airfoilTopBottom)
//
// C-grid parameters:
//   chord      = 900.0 mm,  AoA = -3.0 deg
//   xi_arch    = 0.02
//   xi_suction = 0.5,  xi_pressure = 0.08
//   H_BL       = 280.0 mm,  H_far = 280.0 mm
//   segments   = 6+2+1+2+2  (suction+archUp+LE+archLo+pressure)
//   total blocks = 24
//   cosine arch = true

scale 0.001;   // vertices in mm → metres

vertices
(
    (    -4.23219420     80.75507609     -1.00000000 )   // 0
    (   -76.99846890     74.45710878     -1.00000000 )   // 1
    (  -149.48063296     65.43679537     -1.00000000 )   // 2
    (  -221.60709884     53.92758668     -1.00000000 )   // 3
    (  -293.24350098     39.68632056     -1.00000000 )   // 4
    (  -364.02812783     21.71382707     -1.00000000 )   // 5
    (  -432.40459038     -3.59227385     -1.00000000 )   // 6
    (  -441.12051277     -9.24847074     -1.00000000 )   // 7
    (  -449.38329064    -23.55118031     -1.00000000 )   // 8
    (  -439.67073688    -36.91184267     -1.00000000 )   // 9
    (  -430.41132765    -41.62599234     -1.00000000 )   // 10
    (  -403.31613959    -50.27500923     -1.00000000 )   // 11
    (  -375.55131221    -56.62202487     -1.00000000 )   // 12
    (   -22.59974109    360.15198592     -1.00000000 )   // 13
    (  -107.08980776    352.83546880     -1.00000000 )   // 14
    (  -187.92819272    342.78456470     -1.00000000 )   // 15
    (  -270.80443472    329.57160011     -1.00000000 )   // 16
    (  -353.97877032    313.01986599     -1.00000000 )   // 17
    (  -443.04089258    290.33434565     -1.00000000 )   // 18
    (  -564.35003284    243.37007189     -1.00000000 )   // 19
    (  -622.73668659    203.86080969     -1.00000000 )   // 20
    (  -728.99956037    -38.20524806     -1.00000000 )   // 21
    (  -598.01601270   -267.83774772     -1.00000000 )   // 22
    (  -535.81936469   -301.02750685     -1.00000000 )   // 23
    (  -476.15382972   -320.63527054     -1.00000000 )   // 24
    (  -430.50688420   -331.17599973     -1.00000000 )   // 25
    (   -40.96728798    639.54889575     -1.00000000 )   // 26
    (  -137.18114662    631.21382882     -1.00000000 )   // 27
    (  -226.37575248    620.13233402     -1.00000000 )   // 28
    (  -320.00177059    605.21561355     -1.00000000 )   // 29
    (  -414.71403966    586.35341142     -1.00000000 )   // 30
    (  -522.05365734    558.95486424     -1.00000000 )   // 31
    (  -696.29547530    490.33241763     -1.00000000 )   // 32
    (  -804.35286041    416.97009013     -1.00000000 )   // 33
    ( -1008.61583010    -52.85931581     -1.00000000 )   // 34
    (  -756.36128853   -498.76365277     -1.00000000 )   // 35
    (  -641.22740173   -560.42902135     -1.00000000 )   // 36
    (  -548.99151984   -590.99553185     -1.00000000 )   // 37
    (  -485.46245619   -605.72997458     -1.00000000 )   // 38
    (    -4.23219420     80.75507609      1.00000000 )   // 39
    (   -76.99846890     74.45710878      1.00000000 )   // 40
    (  -149.48063296     65.43679537      1.00000000 )   // 41
    (  -221.60709884     53.92758668      1.00000000 )   // 42
    (  -293.24350098     39.68632056      1.00000000 )   // 43
    (  -364.02812783     21.71382707      1.00000000 )   // 44
    (  -432.40459038     -3.59227385      1.00000000 )   // 45
    (  -441.12051277     -9.24847074      1.00000000 )   // 46
    (  -449.38329064    -23.55118031      1.00000000 )   // 47
    (  -439.67073688    -36.91184267      1.00000000 )   // 48
    (  -430.41132765    -41.62599234      1.00000000 )   // 49
    (  -403.31613959    -50.27500923      1.00000000 )   // 50
    (  -375.55131221    -56.62202487      1.00000000 )   // 51
    (   -22.59974109    360.15198592      1.00000000 )   // 52
    (  -107.08980776    352.83546880      1.00000000 )   // 53
    (  -187.92819272    342.78456470      1.00000000 )   // 54
    (  -270.80443472    329.57160011      1.00000000 )   // 55
    (  -353.97877032    313.01986599      1.00000000 )   // 56
    (  -443.04089258    290.33434565      1.00000000 )   // 57
    (  -564.35003284    243.37007189      1.00000000 )   // 58
    (  -622.73668659    203.86080969      1.00000000 )   // 59
    (  -728.99956037    -38.20524806      1.00000000 )   // 60
    (  -598.01601270   -267.83774772      1.00000000 )   // 61
    (  -535.81936469   -301.02750685      1.00000000 )   // 62
    (  -476.15382972   -320.63527054      1.00000000 )   // 63
    (  -430.50688420   -331.17599973      1.00000000 )   // 64
    (   -40.96728798    639.54889575      1.00000000 )   // 65
    (  -137.18114662    631.21382882      1.00000000 )   // 66
    (  -226.37575248    620.13233402      1.00000000 )   // 67
    (  -320.00177059    605.21561355      1.00000000 )   // 68
    (  -414.71403966    586.35341142      1.00000000 )   // 69
    (  -522.05365734    558.95486424      1.00000000 )   // 70
    (  -696.29547530    490.33241763      1.00000000 )   // 71
    (  -804.35286041    416.97009013      1.00000000 )   // 72
    ( -1008.61583010    -52.85931581      1.00000000 )   // 73
    (  -756.36128853   -498.76365277      1.00000000 )   // 74
    (  -641.22740173   -560.42902135      1.00000000 )   // 75
    (  -548.99151984   -590.99553185      1.00000000 )   // 76
    (  -485.46245619   -605.72997458      1.00000000 )   // 77
);

blocks
(
    hex (39 40 53 52 0 1 14 13)  (108 400 2) simpleGrading (1 200 1)   // block 0
    hex (52 53 66 65 13 14 27 26)  (108 75 2) simpleGrading (1 1 1)   // block 1
    hex (40 41 54 53 1 2 15 14)  (108 400 2) simpleGrading (1 200 1)   // block 2
    hex (53 54 67 66 14 15 28 27)  (108 75 2) simpleGrading (1 1 1)   // block 3
    hex (41 42 55 54 2 3 16 15)  (108 400 2) simpleGrading (1 200 1)   // block 4
    hex (54 55 68 67 15 16 29 28)  (108 75 2) simpleGrading (1 1 1)   // block 5
    hex (42 43 56 55 3 4 17 16)  (108 400 2) simpleGrading (1 200 1)   // block 6
    hex (55 56 69 68 16 17 30 29)  (108 75 2) simpleGrading (1 1 1)   // block 7
    hex (43 44 57 56 4 5 18 17)  (108 400 2) simpleGrading (1 200 1)   // block 8
    hex (56 57 70 69 17 18 31 30)  (108 75 2) simpleGrading (1 1 1)   // block 9
    hex (44 45 58 57 5 6 19 18)  (108 400 2) simpleGrading (1 200 1)   // block 10
    hex (57 58 71 70 18 19 32 31)  (108 75 2) simpleGrading (1 1 1)   // block 11
    hex (45 46 59 58 6 7 20 19)  (10 400 2) simpleGrading (2.21684 200 1)   // block 12
    hex (58 59 72 71 19 20 33 32)  (10 75 2) simpleGrading (2.21684 1 1)   // block 13
    hex (46 47 60 59 7 8 21 20)  (34 400 2) simpleGrading (0.0564141 200 1)   // block 14
    hex (59 60 73 72 20 21 34 33)  (34 75 2) simpleGrading (0.0564141 1 1)   // block 15
    hex (47 48 61 60 8 9 22 21)  (34 400 2) simpleGrading (17.7261 200 1)   // block 16
    hex (60 61 74 73 21 22 35 34)  (34 75 2) simpleGrading (17.7261 1 1)   // block 17
    hex (48 49 62 61 9 10 23 22)  (9 400 2) simpleGrading (0.575231 200 1)   // block 18
    hex (61 62 75 74 22 23 36 35)  (9 75 2) simpleGrading (0.575231 1 1)   // block 19
    hex (49 50 63 62 10 11 24 23)  (33 400 2) simpleGrading (1 200 1)   // block 20
    hex (62 63 76 75 23 24 37 36)  (33 75 2) simpleGrading (1 1 1)   // block 21
    hex (50 51 64 63 11 12 25 24)  (33 400 2) simpleGrading (1 200 1)   // block 22
    hex (63 64 77 76 24 25 38 37)  (33 75 2) simpleGrading (1 1 1)   // block 23
);

edges
(
    polyLine 0 1 ( (    -5.68985626    80.65840581    -1.00000000 ) (    -7.14744444    80.56062778    -1.00000000 ) (    -8.60495643    80.46172072    -1.00000000 ) (   -10.06238991    80.36166335    -1.00000000 ) (   -11.51974247    80.26043440    -1.00000000 ) (   -12.97701169    80.15801260    -1.00000000 ) (   -14.43419507    80.05437670    -1.00000000 ) (   -15.89129007    79.94950547    -1.00000000 ) (   -17.34829407    79.84337766    -1.00000000 ) (   -18.80520444    79.73597207    -1.00000000 ) (   -20.26201846    79.62726748    -1.00000000 ) (   -21.71873337    79.51724270    -1.00000000 ) (   -23.17534634    79.40587655    -1.00000000 ) (   -24.63185450    79.29314786    -1.00000000 ) (   -26.08825490    79.17903549    -1.00000000 ) (   -27.54454554    79.06353074    -1.00000000 ) (   -29.00072723    78.94666056    -1.00000000 ) (   -30.45680140    78.82845819    -1.00000000 ) (   -31.91276954    78.70895687    -1.00000000 ) (   -33.36863324    78.58818984    -1.00000000 ) (   -34.82439418    78.46619031    -1.00000000 ) (   -36.28005412    78.34299149    -1.00000000 ) (   -37.73561490    78.21862657    -1.00000000 ) (   -39.19107844    78.09312873    -1.00000000 ) (   -40.64644674    77.96653115    -1.00000000 ) (   -42.10172187    77.83886697    -1.00000000 ) (   -43.55690597    77.71016934    -1.00000000 ) (   -45.01200125    77.58047140    -1.00000000 ) (   -46.46701001    77.44980626    -1.00000000 ) (   -47.92193456    77.31820685    -1.00000000 ) (   -49.37677550    77.18568630    -1.00000000 ) (   -50.83152999    77.05222005    -1.00000000 ) (   -52.28619474    76.91777936    -1.00000000 ) (   -53.74076643    76.78233548    -1.00000000 ) (   -55.19524165    76.64585967    -1.00000000 ) (   -56.64961697    76.50832323    -1.00000000 ) (   -58.10388886    76.36969746    -1.00000000 ) (   -59.55805374    76.22995369    -1.00000000 ) (   -61.01210797    76.08906325    -1.00000000 ) (   -62.46604783    75.94699751    -1.00000000 ) (   -63.91986956    75.80372785    -1.00000000 ) (   -65.37356930    75.65922567    -1.00000000 ) (   -66.82714312    75.51346239    -1.00000000 ) (   -68.28058705    75.36640947    -1.00000000 ) (   -69.73389711    75.21803944    -1.00000000 ) (   -71.18707223    75.06835351    -1.00000000 ) (   -72.64011454    74.91738382    -1.00000000 ) (   -74.09302643    74.76516404    -1.00000000 ) (   -75.54581037    74.61172781    -1.00000000 ) )
    polyLine 1 2 ( (   -78.45104020    74.30133673    -1.00000000 ) (   -79.90349143    74.14444901    -1.00000000 ) (   -81.35582537    73.98647919    -1.00000000 ) (   -82.80804488    73.82746085    -1.00000000 ) (   -84.26015289    73.66742749    -1.00000000 ) (   -85.71215240    73.50641265    -1.00000000 ) (   -87.16404647    73.34444982    -1.00000000 ) (   -88.61583824    73.18157247    -1.00000000 ) (   -90.06753089    73.01781407    -1.00000000 ) (   -91.51912718    72.85320363    -1.00000000 ) (   -92.97062581    72.68773436    -1.00000000 ) (   -94.42202353    72.52138221    -1.00000000 ) (   -95.87331699    72.35412302    -1.00000000 ) (   -97.32450283    72.18593263    -1.00000000 ) (   -98.77557763    72.01678693    -1.00000000 ) (  -100.22653793    71.84666179    -1.00000000 ) (  -101.67738021    71.67553313    -1.00000000 ) (  -103.12810091    71.50337687    -1.00000000 ) (  -104.57869642    71.33016895    -1.00000000 ) (  -106.02916309    71.15588534    -1.00000000 ) (  -107.47949719    70.98050203    -1.00000000 ) (  -108.92969497    70.80399502    -1.00000000 ) (  -110.37975260    70.62634034    -1.00000000 ) (  -111.82966621    70.44751411    -1.00000000 ) (  -113.27943350    70.26750541    -1.00000000 ) (  -114.72905570    70.08633201    -1.00000000 ) (  -116.17853458    69.90401550    -1.00000000 ) (  -117.62787195    69.72057746    -1.00000000 ) (  -119.07706968    69.53603944    -1.00000000 ) (  -120.52612968    69.35042300    -1.00000000 ) (  -121.97505390    69.16374967    -1.00000000 ) (  -123.42384436    68.97604095    -1.00000000 ) (  -124.87250310    68.78731835    -1.00000000 ) (  -126.32103221    68.59760336    -1.00000000 ) (  -127.76943383    68.40691743    -1.00000000 ) (  -129.21771013    68.21528203    -1.00000000 ) (  -130.66586333    68.02271859    -1.00000000 ) (  -132.11389569    67.82924854    -1.00000000 ) (  -133.56180918    67.63489082    -1.00000000 ) (  -135.00960333    67.43964619    -1.00000000 ) (  -136.45727660    67.24350726    -1.00000000 ) (  -137.90482743    67.04646666    -1.00000000 ) (  -139.35225421    66.84851697    -1.00000000 ) (  -140.79955537    66.64965082    -1.00000000 ) (  -142.24672929    66.44986081    -1.00000000 ) (  -143.69377434    66.24913960    -1.00000000 ) (  -145.14068889    66.04747979    -1.00000000 ) (  -146.58747129    65.84487405    -1.00000000 ) (  -148.03411987    65.64131503    -1.00000000 ) )
    polyLine 2 3 ( (  -150.92696314    65.23131427    -1.00000000 ) (  -152.37315445    65.02485794    -1.00000000 ) (  -153.81920514    64.81741910    -1.00000000 ) (  -155.26511354    64.60899070    -1.00000000 ) (  -156.71087796    64.39956593    -1.00000000 ) (  -158.15649671    64.18913798    -1.00000000 ) (  -159.60196808    63.97770005    -1.00000000 ) (  -161.04729036    63.76524534    -1.00000000 ) (  -162.49246181    63.55176708    -1.00000000 ) (  -163.93748068    63.33725848    -1.00000000 ) (  -165.38234522    63.12171280    -1.00000000 ) (  -166.82705365    62.90512327    -1.00000000 ) (  -168.27160419    62.68748314    -1.00000000 ) (  -169.71599502    62.46878568    -1.00000000 ) (  -171.16022435    62.24902416    -1.00000000 ) (  -172.60429033    62.02819187    -1.00000000 ) (  -174.04819127    61.80628300    -1.00000000 ) (  -175.49192749    61.58330496    -1.00000000 ) (  -176.93550088    61.35927521    -1.00000000 ) (  -178.37891343    61.13421140    -1.00000000 ) (  -179.82216712    60.90813121    -1.00000000 ) (  -181.26526401    60.68105227    -1.00000000 ) (  -182.70820618    60.45299221    -1.00000000 ) (  -184.15099573    60.22396863    -1.00000000 ) (  -185.59363482    59.99399913    -1.00000000 ) (  -187.03612561    59.76310128    -1.00000000 ) (  -188.47847032    59.53129265    -1.00000000 ) (  -189.92067119    59.29859078    -1.00000000 ) (  -191.36273049    59.06501320    -1.00000000 ) (  -192.80465053    58.83057743    -1.00000000 ) (  -194.24643271    58.59529540    -1.00000000 ) (  -195.68807331    58.35914741    -1.00000000 ) (  -197.12956673    58.12210264    -1.00000000 ) (  -198.57090730    57.88413028    -1.00000000 ) (  -200.01208932    57.64519957    -1.00000000 ) (  -201.45310700    57.40527976    -1.00000000 ) (  -202.89395453    57.16434017    -1.00000000 ) (  -204.33462600    56.92235012    -1.00000000 ) (  -205.77511547    56.67927899    -1.00000000 ) (  -207.21541691    56.43509621    -1.00000000 ) (  -208.65552424    56.18977123    -1.00000000 ) (  -210.09543131    55.94327355    -1.00000000 ) (  -211.53513190    55.69557274    -1.00000000 ) (  -212.97461984    55.44663912    -1.00000000 ) (  -214.41389267    55.19646475    -1.00000000 ) (  -215.85295219    54.94506619    -1.00000000 ) (  -217.29180043    54.69246129    -1.00000000 ) (  -218.73043952    54.43866786    -1.00000000 ) (  -220.16887160    54.18370373    -1.00000000 ) )
    polyLine 3 4 ( (  -223.04514012    53.67033147    -1.00000000 ) (  -224.48298104    53.41195881    -1.00000000 ) (  -225.92062391    53.15248642    -1.00000000 ) (  -227.35807107    52.89193200    -1.00000000 ) (  -228.79532491    52.63031321    -1.00000000 ) (  -230.23238782    52.36764773    -1.00000000 ) (  -231.66926222    52.10395300    -1.00000000 ) (  -233.10594882    51.83923693    -1.00000000 ) (  -234.54244562    51.57349287    -1.00000000 ) (  -235.97875041    51.30671295    -1.00000000 ) (  -237.41486095    51.03888934    -1.00000000 ) (  -238.85077500    50.77001421    -1.00000000 ) (  -240.28649027    50.50007974    -1.00000000 ) (  -241.72200450    50.22907813    -1.00000000 ) (  -243.15731539    49.95700158    -1.00000000 ) (  -244.59242060    49.68384234    -1.00000000 ) (  -246.02731782    49.40959262    -1.00000000 ) (  -247.46200470    49.13424469    -1.00000000 ) (  -248.89647889    48.85779082    -1.00000000 ) (  -250.33073802    48.58022342    -1.00000000 ) (  -251.76478020    48.30153728    -1.00000000 ) (  -253.19860386    48.02172908    -1.00000000 ) (  -254.63220746    47.74079557    -1.00000000 ) (  -256.06558944    47.45873350    -1.00000000 ) (  -257.49874825    47.17553965    -1.00000000 ) (  -258.93168231    46.89121079    -1.00000000 ) (  -260.36439004    46.60574371    -1.00000000 ) (  -261.79686987    46.31913519    -1.00000000 ) (  -263.22912021    46.03138204    -1.00000000 ) (  -264.66113947    45.74248106    -1.00000000 ) (  -266.09292603    45.45242908    -1.00000000 ) (  -267.52447828    45.16122288    -1.00000000 ) (  -268.95579258    44.86884936    -1.00000000 ) (  -270.38686077    44.57527362    -1.00000000 ) (  -271.81767402    44.28045786    -1.00000000 ) (  -273.24822340    43.98436441    -1.00000000 ) (  -274.67849991    43.68695562    -1.00000000 ) (  -276.10849443    43.38819397    -1.00000000 ) (  -277.53819777    43.08804199    -1.00000000 ) (  -278.96760064    42.78646230    -1.00000000 ) (  -280.39669363    42.48341762    -1.00000000 ) (  -281.82546725    42.17887075    -1.00000000 ) (  -283.25391191    41.87278460    -1.00000000 ) (  -284.68201792    41.56512228    -1.00000000 ) (  -286.10977933    41.25586465    -1.00000000 ) (  -287.53719792    40.94502849    -1.00000000 ) (  -288.96427650    40.63263495    -1.00000000 ) (  -290.39101791    40.31870509    -1.00000000 ) (  -291.81742507    40.00325996    -1.00000000 ) )
    polyLine 4 5 ( (  -294.66924667    39.36790829    -1.00000000 ) (  -296.09466722    39.04804361    -1.00000000 ) (  -297.51976579    38.72674739    -1.00000000 ) (  -298.94454557    38.40404046    -1.00000000 ) (  -300.36900984    38.07994359    -1.00000000 ) (  -301.79316119    37.75447445    -1.00000000 ) (  -303.21699482    37.42761822    -1.00000000 ) (  -304.64050143    37.09934069    -1.00000000 ) (  -306.06367157    36.76960752    -1.00000000 ) (  -307.48649569    36.43838444    -1.00000000 ) (  -308.90896415    36.10563727    -1.00000000 ) (  -310.33106722    35.77133195    -1.00000000 ) (  -311.75279507    35.43543451    -1.00000000 ) (  -313.17413779    35.09791109    -1.00000000 ) (  -314.59508534    34.75872794    -1.00000000 ) (  -316.01562762    34.41785141    -1.00000000 ) (  -317.43575466    34.07524909    -1.00000000 ) (  -318.85546022    33.73090435    -1.00000000 ) (  -320.27474081    33.38481220    -1.00000000 ) (  -321.69359300    33.03696794    -1.00000000 ) (  -323.11201336    32.68736690    -1.00000000 ) (  -324.52999842    32.33600447    -1.00000000 ) (  -325.94754471    31.98287603    -1.00000000 ) (  -327.36464875    31.62797701    -1.00000000 ) (  -328.78130706    31.27130287    -1.00000000 ) (  -330.19751612    30.91284909    -1.00000000 ) (  -331.61327240    30.55261119    -1.00000000 ) (  -333.02857106    30.19057953    -1.00000000 ) (  -334.44340232    29.82672560    -1.00000000 ) (  -335.85775524    29.46101664    -1.00000000 ) (  -337.27161874    29.09342008    -1.00000000 ) (  -338.68498165    28.72390346    -1.00000000 ) (  -340.09783269    28.35243447    -1.00000000 ) (  -341.51016047    27.97898094    -1.00000000 ) (  -342.92195350    27.60351087    -1.00000000 ) (  -344.33320006    27.22599242    -1.00000000 ) (  -345.74388844    26.84639390    -1.00000000 ) (  -347.15400753    26.46468601    -1.00000000 ) (  -348.56354893    26.08085034    -1.00000000 ) (  -349.97250504    25.69487174    -1.00000000 ) (  -351.38086821    25.30673516    -1.00000000 ) (  -352.78863073    24.91642565    -1.00000000 ) (  -354.19578487    24.52392835    -1.00000000 ) (  -355.60232281    24.12922850    -1.00000000 ) (  -357.00823670    23.73231145    -1.00000000 ) (  -358.41351865    23.33316264    -1.00000000 ) (  -359.81816063    22.93176741    -1.00000000 ) (  -361.22215211    22.52810263    -1.00000000 ) (  -362.62547925    22.12213410    -1.00000000 ) )
    polyLine 5 6 ( (  -365.42966731    21.30326931    -1.00000000 ) (  -366.83049997    20.89030564    -1.00000000 ) (  -368.23061122    20.47490202    -1.00000000 ) (  -369.62998634    20.05702464    -1.00000000 ) (  -371.02861047    19.63663995    -1.00000000 ) (  -372.42646814    19.21371440    -1.00000000 ) (  -373.82353946    18.78820017    -1.00000000 ) (  -375.21979948    18.36003080    -1.00000000 ) (  -376.61522198    17.92913927    -1.00000000 ) (  -378.00978047    17.49545905    -1.00000000 ) (  -379.40344815    17.05892414    -1.00000000 ) (  -380.79619795    16.61946909    -1.00000000 ) (  -382.18800186    16.17702922    -1.00000000 ) (  -383.57883250    15.73154012    -1.00000000 ) (  -384.96866029    15.28293184    -1.00000000 ) (  -386.35744653    14.83110918    -1.00000000 ) (  -387.74514978    14.37597089    -1.00000000 ) (  -389.13172812    13.91741673    -1.00000000 ) (  -390.51713912    13.45534750    -1.00000000 ) (  -391.90133985    12.98966510    -1.00000000 ) (  -393.28428689    12.52027253    -1.00000000 ) (  -394.66593628    12.04707391    -1.00000000 ) (  -396.04623413    11.56994820    -1.00000000 ) (  -397.42510235    11.08870787    -1.00000000 ) (  -398.80245851    10.60315684    -1.00000000 ) (  -400.17821863    10.11310189    -1.00000000 ) (  -401.55229757     9.61835264    -1.00000000 ) (  -402.92460900     9.11872172    -1.00000000 ) (  -404.29506543     8.61402491    -1.00000000 ) (  -405.66358577     8.10410146    -1.00000000 ) (  -407.03012562     7.58889380    -1.00000000 ) (  -408.39465209     7.06837685    -1.00000000 ) (  -409.75713223     6.54252651    -1.00000000 ) (  -411.11753311     6.01131966    -1.00000000 ) (  -412.47582041     5.47473473    -1.00000000 ) (  -413.83195974     4.93274452    -1.00000000 ) (  -415.18576825     4.38495982    -1.00000000 ) (  -416.53682673     3.83042834    -1.00000000 ) (  -417.88468808     3.26817098    -1.00000000 ) (  -419.22889743     2.69723697    -1.00000000 ) (  -420.56899199     2.11670759    -1.00000000 ) (  -421.90450136     1.52571098    -1.00000000 ) (  -423.23515701     0.92387502    -1.00000000 ) (  -424.56100146     0.31150478    -1.00000000 ) (  -425.88210020    -0.31104821    -1.00000000 ) (  -427.19851187    -0.94343611    -1.00000000 ) (  -428.51031760    -1.58532883    -1.00000000 ) (  -429.81704731    -2.23750002    -1.00000000 ) (  -431.11614272    -2.90469696    -1.00000000 ) )
    polyLine 6 7 ( (  -434.53813750    -4.80705685    -1.00000000 ) (  -439.57678127    -8.11188825    -1.00000000 ) )
    polyLine 7 8 ( (  -443.58145395   -11.52475384    -1.00000000 ) (  -446.54467515   -15.01642206    -1.00000000 ) (  -448.46340356   -18.52454831    -1.00000000 ) (  -448.84274138   -20.31800074    -1.00000000 ) (  -449.11541711   -21.88877482    -1.00000000 ) (  -449.29423661   -22.99252014    -1.00000000 ) (  -449.35658252   -23.38342784    -1.00000000 ) )
    polyLine 8 9 ( (  -449.33919393   -23.71522205    -1.00000000 ) (  -449.23632857   -24.09747140    -1.00000000 ) (  -448.94311586   -25.17647856    -1.00000000 ) (  -448.50774327   -26.71014540    -1.00000000 ) (  -447.94301668   -28.45412150    -1.00000000 ) (  -445.66810022   -31.74246814    -1.00000000 ) (  -442.35613314   -34.90526768    -1.00000000 ) )
    polyLine 9 10 ( (  -438.01665688   -37.88083496    -1.00000000 ) (  -432.66016638   -40.64088045    -1.00000000 ) )
    polyLine 10 11 ( (  -429.88502314   -41.84291294    -1.00000000 ) (  -429.35719650   -42.05609640    -1.00000000 ) (  -428.82799814   -42.26584824    -1.00000000 ) (  -428.29757367   -42.47248818    -1.00000000 ) (  -427.76607407   -42.67634492    -1.00000000 ) (  -427.23364470   -42.87775922    -1.00000000 ) (  -426.70042867   -43.07708123    -1.00000000 ) (  -426.16656636   -43.27466828    -1.00000000 ) (  -425.63215377   -43.47076315    -1.00000000 ) (  -425.09719915   -43.66537373    -1.00000000 ) (  -424.56169999   -43.85848034    -1.00000000 ) (  -424.02565392   -44.05006305    -1.00000000 ) (  -423.48905866   -44.24010177    -1.00000000 ) (  -422.95191182   -44.42857630    -1.00000000 ) (  -422.41421110   -44.61546622    -1.00000000 ) (  -421.87595515   -44.80075063    -1.00000000 ) (  -421.33714218   -44.98440866    -1.00000000 ) (  -420.79777053   -45.16641919    -1.00000000 ) (  -420.25783868   -45.34676095    -1.00000000 ) (  -419.71734524   -45.52541242    -1.00000000 ) (  -419.17628895   -45.70235193    -1.00000000 ) (  -418.63466943   -45.87755968    -1.00000000 ) (  -418.09249865   -46.05105410    -1.00000000 ) (  -417.54979907   -46.22288735    -1.00000000 ) (  -417.00659326   -46.39311359    -1.00000000 ) (  -416.46290351   -46.56178785    -1.00000000 ) (  -415.91875184   -46.72896595    -1.00000000 ) (  -415.37415998   -46.89470455    -1.00000000 ) (  -414.82914941   -47.05906104    -1.00000000 ) (  -414.28374133   -47.22209356    -1.00000000 ) (  -413.73795667   -47.38386092    -1.00000000 ) (  -413.19181611   -47.54442262    -1.00000000 ) (  -412.64534008   -47.70383875    -1.00000000 ) (  -412.09854876   -47.86217003    -1.00000000 ) (  -411.55146209   -48.01947771    -1.00000000 ) (  -411.00409959   -48.17582362    -1.00000000 ) (  -410.45648082   -48.33126985    -1.00000000 ) (  -409.90861971   -48.48585968    -1.00000000 ) (  -409.36051932   -48.63959886    -1.00000000 ) (  -408.81218147   -48.79248881    -1.00000000 ) (  -408.26360799   -48.94453097    -1.00000000 ) (  -407.71480069   -49.09572680    -1.00000000 ) (  -407.16576139   -49.24607778    -1.00000000 ) (  -406.61649178   -49.39558546    -1.00000000 ) (  -406.06699352   -49.54425141    -1.00000000 ) (  -405.51726869   -49.69207710    -1.00000000 ) (  -404.96731908   -49.83906411    -1.00000000 ) (  -404.41714650   -49.98521405    -1.00000000 ) (  -403.86675274   -50.13052854    -1.00000000 ) )
    polyLine 11 12 ( (  -402.76488238   -50.41876864    -1.00000000 ) (  -402.21340897   -50.56169634    -1.00000000 ) (  -401.66172115   -50.70379403    -1.00000000 ) (  -401.10982070   -50.84506351    -1.00000000 ) (  -400.55771026   -50.98550994    -1.00000000 ) (  -400.00539382   -51.12514400    -1.00000000 ) (  -399.45287548   -51.26397694    -1.00000000 ) (  -398.90015930   -51.40202010    -1.00000000 ) (  -398.34724931   -51.53928489    -1.00000000 ) (  -397.79414950   -51.67578276    -1.00000000 ) (  -397.24086382   -51.81152528    -1.00000000 ) (  -396.68739617   -51.94652407    -1.00000000 ) (  -396.13375039   -52.08079081    -1.00000000 ) (  -395.57993042   -52.21433722    -1.00000000 ) (  -395.02594009   -52.34717512    -1.00000000 ) (  -394.47178319   -52.47931638    -1.00000000 ) (  -393.91746347   -52.61077293    -1.00000000 ) (  -393.36298466   -52.74155677    -1.00000000 ) (  -392.80835043   -52.87167995    -1.00000000 ) (  -392.25356445   -53.00115458    -1.00000000 ) (  -391.69863034   -53.12999284    -1.00000000 ) (  -391.14355170   -53.25820694    -1.00000000 ) (  -390.58833194   -53.38580861    -1.00000000 ) (  -390.03297355   -53.51280553    -1.00000000 ) (  -389.47747855   -53.63920358    -1.00000000 ) (  -388.92184896   -53.76500866    -1.00000000 ) (  -388.36608678   -53.89022670    -1.00000000 ) (  -387.81019399   -54.01486365    -1.00000000 ) (  -387.25417256   -54.13892548    -1.00000000 ) (  -386.69802446   -54.26241820    -1.00000000 ) (  -386.14175162   -54.38534784    -1.00000000 ) (  -385.58535598   -54.50772044    -1.00000000 ) (  -385.02883945   -54.62954208    -1.00000000 ) (  -384.47220392   -54.75081887    -1.00000000 ) (  -383.91545129   -54.87155692    -1.00000000 ) (  -383.35858343   -54.99176237    -1.00000000 ) (  -382.80160220   -55.11144141    -1.00000000 ) (  -382.24450944   -55.23060022    -1.00000000 ) (  -381.68730698   -55.34924500    -1.00000000 ) (  -381.12999664   -55.46738200    -1.00000000 ) (  -380.57258022   -55.58501748    -1.00000000 ) (  -380.01505952   -55.70215770    -1.00000000 ) (  -379.45743628   -55.81880881    -1.00000000 ) (  -378.89971192   -55.93497552    -1.00000000 ) (  -378.34188771   -56.05066178    -1.00000000 ) (  -377.78396490   -56.16587154    -1.00000000 ) (  -377.22594471   -56.28060875    -1.00000000 ) (  -376.66782839   -56.39487738    -1.00000000 ) (  -376.10961715   -56.50868142    -1.00000000 ) )