/*--------------------------------*- C++ -*----------------------------------*\
| =========                 |                                                 |
| \\      /  F ield         | OpenFOAM: The Open Source CFD Toolbox           |
|  \\    /   O peration     | Version:  v2412                                 |
|   \\  /    A nd           | Website:  www.openfoam.com                      |
|    \\/     M anipulation  |                                                 |
\*---------------------------------------------------------------------------*/
FoamFile
{
    version     2.0;
    format      ascii;
    class       dictionary;
    object      sampleDict;
}
// * * * * * * * * * * * * * * * * * * * * * * * * * * * * * * * * * * * * * //

type            sets;
libs            (sampling);

interpolationScheme cellPoint;
setFormat       raw;

fields          (U p);

sets
{
    suctionOutletProbes
    {
        type    cloud;
        axis    xyz;
        points
        (
            (-0.004233406547 0.08077351764 0.005)
            (-0.004235863953 0.08081089833 0.005)
            (-0.004238387666 0.08084928765 0.005)
            (-0.004240979474 0.0808887128 0.005)
            (-0.004243641215 0.08092920173 0.005)
            (-0.004246374777 0.08097078314 0.005)
            (-0.004249182096 0.08101348651 0.005)
            (-0.004252065162 0.08105734213 0.005)
            (-0.004255026021 0.08110238107 0.005)
            (-0.004258066771 0.08114863526 0.005)
            (-0.004261189568 0.0811961375 0.005)
            (-0.004264396624 0.08124492145 0.005)
            (-0.004267690215 0.08129502172 0.005)
            (-0.004271072673 0.0813464738 0.005)
            (-0.004274546398 0.08139931419 0.005)
            (-0.004278113853 0.08145358032 0.005)
            (-0.004281777565 0.08150931068 0.005)
            (-0.004285540134 0.08156654477 0.005)
            (-0.004289404225 0.08162532318 0.005)
            (-0.004293372578 0.08168568756 0.005)
            (-0.004297448006 0.08174768071 0.005)
            (-0.004301633399 0.08181134658 0.005)
            (-0.004305931724 0.08187673031 0.005)
            (-0.004310346028 0.08194387824 0.005)
            (-0.004314879439 0.08201283797 0.005)
            (-0.004319535172 0.08208365839 0.005)
            (-0.004324316529 0.08215638972 0.005)
            (-0.004329226896 0.08223108351 0.005)
            (-0.004334269757 0.0823077927 0.005)
            (-0.004339448687 0.08238657169 0.005)
            (-0.004344767355 0.08246747632 0.005)
            (-0.004350229533 0.08255056395 0.005)
            (-0.004355839094 0.08263589346 0.005)
            (-0.004361600013 0.08272352537 0.005)
            (-0.004367516376 0.08281352179 0.005)
            (-0.004373592377 0.08290594652 0.005)
            (-0.00437983232 0.08300086508 0.005)
            (-0.004386240633 0.08309834477 0.005)
            (-0.004392821857 0.08319845469 0.005)
            (-0.004399580657 0.0833012658 0.005)
            (-0.004406521825 0.08340685099 0.005)
            (-0.004413650282 0.08351528511 0.005)
            (-0.004420971082 0.08362664504 0.005)
            (-0.004428489413 0.08374100972 0.005)
            (-0.004436210606 0.08385846021 0.005)
            (-0.004444140135 0.0839790798 0.005)
            (-0.004452283622 0.08410295399 0.005)
            (-0.004460646838 0.08423017059 0.005)
            (-0.004469235713 0.08436081978 0.005)
            (-0.004478056336 0.08449499419 0.005)
            (-0.00448711496 0.08463278894 0.005)
            (-0.004496418006 0.0847743017 0.005)
            (-0.004505972071 0.08491963282 0.005)
            (-0.004515783925 0.0850688853 0.005)
            (-0.004525860526 0.08522216495 0.005)
            (-0.004536209018 0.08537958045 0.005)
            (-0.004546836736 0.08554124339 0.005)
            (-0.004557751214 0.08570726836 0.005)
            (-0.00456896019 0.08587777307 0.005)
            (-0.004580471611 0.0860528784 0.005)
            (-0.004592293635 0.08623270847 0.005)
            (-0.004604434646 0.08641739077 0.005)
            (-0.004616903249 0.08660705622 0.005)
            (-0.004629708284 0.08680183929 0.005)
            (-0.004642858828 0.08700187806 0.005)
            (-0.004656364204 0.08720731434 0.005)
            (-0.004670233987 0.08741829376 0.005)
            (-0.004684478009 0.08763496589 0.005)
            (-0.004699106367 0.08785748435 0.005)
            (-0.004714129433 0.08808600686 0.005)
            (-0.004729557855 0.08832069544 0.005)
            (-0.004745402572 0.08856171646 0.005)
            (-0.004761674816 0.08880924079 0.005)
            (-0.004778386123 0.0890634439 0.005)
            (-0.004795548339 0.08932450599 0.005)
            (-0.004813173632 0.08959261215 0.005)
            (-0.004831274496 0.08986795243 0.005)
            (-0.004849863764 0.09015072203 0.005)
            (-0.004868954612 0.0904411214 0.005)
            (-0.004888560576 0.09073935642 0.005)
            (-0.004908695554 0.09104563851 0.005)
            (-0.004929373821 0.09136018481 0.005)
            (-0.004950610035 0.09168321829 0.005)
            (-0.004972419252 0.09201496797 0.005)
            (-0.004994816931 0.09235566902 0.005)
            (-0.005017818952 0.09270556296 0.005)
            (-0.00504144162 0.09306489786 0.005)
            (-0.005065701683 0.09343392844 0.005)
            (-0.005090616339 0.09381291632 0.005)
            (-0.005116203249 0.09420213018 0.005)
            (-0.005142480553 0.09460184592 0.005)
            (-0.005169466881 0.09501234693 0.005)
            (-0.005197181361 0.09543392419 0.005)
            (-0.005225643643 0.09586687659 0.005)
            (-0.005254873903 0.09631151105 0.005)
            (-0.005284892862 0.09676814277 0.005)
            (-0.005315721803 0.09723709548 0.005)
            (-0.00534738258 0.09771870162 0.005)
            (-0.005379897638 0.09821330259 0.005)
            (-0.005413290027 0.09872124906 0.005)
            (-0.005447583421 0.09924290109 0.005)
            (-0.005482802129 0.0997786285 0.005)
            (-0.00551897112 0.1003288111 0.005)
            (-0.005556116034 0.1008938389 0.005)
            (-0.005594263204 0.1014741124 0.005)
            (-0.005633439672 0.1020700431 0.005)
            (-0.005673673213 0.1026820533 0.005)
            (-0.005714992348 0.103310577 0.005)
            (-0.005757426368 0.1039560598 0.005)
            (-0.005801005357 0.1046189591 0.005)
            (-0.005845760207 0.1052997449 0.005)
            (-0.005891722647 0.1059989 0.005)
            (-0.00593892526 0.10671692 0.005)
            (-0.005987401509 0.1074543137 0.005)
            (-0.006037185759 0.108211604 0.005)
            (-0.006088313303 0.1089893277 0.005)
            (-0.006140820387 0.1097880364 0.005)
            (-0.006194744234 0.110608296 0.005)
            (-0.006250123071 0.111450688 0.005)
            (-0.006306996157 0.1123158098 0.005)
            (-0.00636540381 0.1132042745 0.005)
            (-0.006425387437 0.114116712 0.005)
            (-0.006486989561 0.1150537693 0.005)
            (-0.006550253854 0.1160161106 0.005)
            (-0.006615225163 0.117004418 0.005)
            (-0.006681949548 0.1180193923 0.005)
            (-0.006750474312 0.1190617528 0.005)
            (-0.006820848033 0.1201322388 0.005)
            (-0.006893120599 0.1212316088 0.005)
            (-0.006967343247 0.1223606425 0.005)
            (-0.007043568593 0.12352014 0.005)
            (-0.007121850676 0.1247109235 0.005)
            (-0.00720224499 0.1259338372 0.005)
            (-0.007284808529 0.1271897478 0.005)
            (-0.007369599824 0.1284795458 0.005)
            (-0.007456678984 0.1298041456 0.005)
            (-0.007546107741 0.1311644861 0.005)
            (-0.007637949493 0.1325615318 0.005)
            (-0.007732269348 0.133996273 0.005)
            (-0.007829134171 0.1354697268 0.005)
            (-0.007928612631 0.1369829378 0.005)
            (-0.008030775251 0.1385369788 0.005)
            (-0.008135694454 0.1401329514 0.005)
            (-0.008243444621 0.141771987 0.005)
            (-0.008354102136 0.1434552476 0.005)
            (-0.008467745447 0.1451839265 0.005)
            (-0.008584455117 0.146959249 0.005)
            (-0.008704313885 0.1487824739 0.005)
            (-0.00882740672 0.1506548937 0.005)
            (-0.008953820884 0.1525778357 0.005)
            (-0.009083645995 0.1545526631 0.005)
            (-0.009216974089 0.1565807759 0.005)
            (-0.009353899682 0.1586636119 0.005)
            (-0.009494519845 0.1608026476 0.005)
            (-0.009638934266 0.1629993995 0.005)
            (-0.009787245322 0.1652554248 0.005)
            (-0.009939558153 0.1675723229 0.005)
            (-0.01009598073 0.1699517362 0.005)
            (-0.01025662397 0.1723953517 0.005)
            (-0.01042160172 0.1749049015 0.005)
            (-0.01059103096 0.1774821649 0.005)
            (-0.01076503179 0.1801289687 0.005)
            (-0.01094372755 0.1828471895 0.005)
            (-0.01112724496 0.1856387541 0.005)
            (-0.01131571408 0.1885056416 0.005)
            (-0.01150926854 0.1914498843 0.005)
            (-0.01170804554 0.1944735696 0.005)
            (-0.011912186 0.1975788408 0.005)
            (-0.01212183465 0.2007678995 0.005)
            (-0.0123371401 0.2040430065 0.005)
            (-0.012558255 0.2074064832 0.005)
            (-0.01278533609 0.2108607145 0.005)
            (-0.01301854435 0.2144081489 0.005)
            (-0.01325804511 0.2180513012 0.005)
            (-0.01350400815 0.2217927543 0.005)
            (-0.01375660784 0.2256351604 0.005)
            (-0.01401602327 0.2295812435 0.005)
            (-0.01428243831 0.2336338011 0.005)
            (-0.01455604186 0.237795706 0.005)
            (-0.01483702786 0.2420699088 0.005)
            (-0.01512559551 0.2464594395 0.005)
            (-0.01542194939 0.2509674098 0.005)
            (-0.01572629957 0.2555970157 0.005)
            (-0.01603886184 0.260351539 0.005)
            (-0.01635985775 0.2652343504 0.005)
            (-0.01668951488 0.2702489113 0.005)
            (-0.01702806692 0.2753987767 0.005)
            (-0.01737575388 0.2806875974 0.005)
            (-0.01773282224 0.2861191227 0.005)
            (-0.01809952513 0.2916972031 0.005)
            (-0.01847612251 0.297425793 0.005)
            (-0.01886288135 0.3033089535 0.005)
            (-0.01926007585 0.3093508554 0.005)
            (-0.01966798758 0.3155557817 0.005)
            (-0.02008690571 0.3219281314 0.005)
            (-0.02051712722 0.3284724218 0.005)
            (-0.0209589571 0.3351932922 0.005)
            (-0.02141270857 0.3420955073 0.005)
            (-0.02187870331 0.3491839601 0.005)
            (-0.02235727167 0.3564636758 0.005)
            (-0.004233406547 0.08077351764 0.005)
            (-0.004235863953 0.08081089833 0.005)
            (-0.004238387666 0.08084928765 0.005)
            (-0.004240979474 0.0808887128 0.005)
            (-0.004243641215 0.08092920173 0.005)
            (-0.004246374777 0.08097078314 0.005)
            (-0.004249182096 0.08101348651 0.005)
            (-0.004252065162 0.08105734213 0.005)
            (-0.004255026021 0.08110238107 0.005)
            (-0.004258066771 0.08114863526 0.005)
            (-0.004261189568 0.0811961375 0.005)
            (-0.004264396624 0.08124492145 0.005)
            (-0.004267690215 0.08129502172 0.005)
            (-0.004271072673 0.0813464738 0.005)
            (-0.004274546398 0.08139931419 0.005)
            (-0.004278113853 0.08145358032 0.005)
            (-0.004281777565 0.08150931068 0.005)
            (-0.004285540134 0.08156654477 0.005)
            (-0.004289404225 0.08162532318 0.005)
            (-0.004293372578 0.08168568756 0.005)
            (-0.004297448006 0.08174768071 0.005)
            (-0.004301633399 0.08181134658 0.005)
            (-0.004305931724 0.08187673031 0.005)
            (-0.004310346028 0.08194387824 0.005)
            (-0.004314879439 0.08201283797 0.005)
            (-0.004319535172 0.08208365839 0.005)
            (-0.004324316529 0.08215638972 0.005)
            (-0.004329226896 0.08223108351 0.005)
            (-0.004334269757 0.0823077927 0.005)
            (-0.004339448687 0.08238657169 0.005)
            (-0.004344767355 0.08246747632 0.005)
            (-0.004350229533 0.08255056395 0.005)
            (-0.004355839094 0.08263589346 0.005)
            (-0.004361600013 0.08272352537 0.005)
            (-0.004367516376 0.08281352179 0.005)
            (-0.004373592377 0.08290594652 0.005)
            (-0.00437983232 0.08300086508 0.005)
            (-0.004386240633 0.08309834477 0.005)
            (-0.004392821857 0.08319845469 0.005)
            (-0.004399580657 0.0833012658 0.005)
            (-0.004406521825 0.08340685099 0.005)
            (-0.004413650282 0.08351528511 0.005)
            (-0.004420971082 0.08362664504 0.005)
            (-0.004428489413 0.08374100972 0.005)
            (-0.004436210606 0.08385846021 0.005)
            (-0.004444140135 0.0839790798 0.005)
            (-0.004452283622 0.08410295399 0.005)
            (-0.004460646838 0.08423017059 0.005)
            (-0.004469235713 0.08436081978 0.005)
            (-0.004478056336 0.08449499419 0.005)
            (-0.00448711496 0.08463278894 0.005)
            (-0.004496418006 0.0847743017 0.005)
            (-0.004505972071 0.08491963282 0.005)
            (-0.004515783925 0.0850688853 0.005)
            (-0.004525860526 0.08522216495 0.005)
            (-0.004536209018 0.08537958045 0.005)
            (-0.004546836736 0.08554124339 0.005)
            (-0.004557751214 0.08570726836 0.005)
            (-0.00456896019 0.08587777307 0.005)
            (-0.004580471611 0.0860528784 0.005)
            (-0.004592293635 0.08623270847 0.005)
            (-0.004604434646 0.08641739077 0.005)
            (-0.004616903249 0.08660705622 0.005)
            (-0.004629708284 0.08680183929 0.005)
            (-0.004642858828 0.08700187806 0.005)
            (-0.004656364204 0.08720731434 0.005)
            (-0.004670233987 0.08741829376 0.005)
            (-0.004684478009 0.08763496589 0.005)
            (-0.004699106367 0.08785748435 0.005)
            (-0.004714129433 0.08808600686 0.005)
            (-0.004729557855 0.08832069544 0.005)
            (-0.004745402572 0.08856171646 0.005)
            (-0.004761674816 0.08880924079 0.005)
            (-0.004778386123 0.0890634439 0.005)
            (-0.004795548339 0.08932450599 0.005)
            (-0.004813173632 0.08959261215 0.005)
            (-0.004831274496 0.08986795243 0.005)
            (-0.004849863764 0.09015072203 0.005)
            (-0.004868954612 0.0904411214 0.005)
            (-0.004888560576 0.09073935642 0.005)
            (-0.004908695554 0.09104563851 0.005)
            (-0.004929373821 0.09136018481 0.005)
            (-0.004950610035 0.09168321829 0.005)
            (-0.004972419252 0.09201496797 0.005)
            (-0.004994816931 0.09235566902 0.005)
            (-0.005017818952 0.09270556296 0.005)
            (-0.00504144162 0.09306489786 0.005)
            (-0.005065701683 0.09343392844 0.005)
            (-0.005090616339 0.09381291632 0.005)
            (-0.005116203249 0.09420213018 0.005)
            (-0.005142480553 0.09460184592 0.005)
            (-0.005169466881 0.09501234693 0.005)
            (-0.005197181361 0.09543392419 0.005)
            (-0.005225643643 0.09586687659 0.005)
            (-0.005254873903 0.09631151105 0.005)
            (-0.005284892862 0.09676814277 0.005)
            (-0.005315721803 0.09723709548 0.005)
            (-0.00534738258 0.09771870162 0.005)
            (-0.005379897638 0.09821330259 0.005)
            (-0.005413290027 0.09872124906 0.005)
            (-0.005447583421 0.09924290109 0.005)
            (-0.005482802129 0.0997786285 0.005)
            (-0.00551897112 0.1003288111 0.005)
            (-0.005556116034 0.1008938389 0.005)
            (-0.005594263204 0.1014741124 0.005)
            (-0.005633439672 0.1020700431 0.005)
            (-0.005673673213 0.1026820533 0.005)
            (-0.005714992348 0.103310577 0.005)
            (-0.005757426368 0.1039560598 0.005)
            (-0.005801005357 0.1046189591 0.005)
            (-0.005845760207 0.1052997449 0.005)
            (-0.005891722647 0.1059989 0.005)
            (-0.00593892526 0.10671692 0.005)
            (-0.005987401509 0.1074543137 0.005)
            (-0.006037185759 0.108211604 0.005)
            (-0.006088313303 0.1089893277 0.005)
            (-0.006140820387 0.1097880364 0.005)
            (-0.006194744234 0.110608296 0.005)
            (-0.006250123071 0.111450688 0.005)
            (-0.006306996157 0.1123158098 0.005)
            (-0.00636540381 0.1132042745 0.005)
            (-0.006425387437 0.114116712 0.005)
            (-0.006486989561 0.1150537693 0.005)
            (-0.006550253854 0.1160161106 0.005)
            (-0.006615225163 0.117004418 0.005)
            (-0.006681949548 0.1180193923 0.005)
            (-0.006750474312 0.1190617528 0.005)
            (-0.006820848033 0.1201322388 0.005)
            (-0.006893120599 0.1212316088 0.005)
            (-0.006967343247 0.1223606425 0.005)
            (-0.007043568593 0.12352014 0.005)
            (-0.007121850676 0.1247109235 0.005)
            (-0.00720224499 0.1259338372 0.005)
            (-0.007284808529 0.1271897478 0.005)
            (-0.007369599824 0.1284795458 0.005)
            (-0.007456678984 0.1298041456 0.005)
            (-0.007546107741 0.1311644861 0.005)
            (-0.007637949493 0.1325615318 0.005)
            (-0.007732269348 0.133996273 0.005)
            (-0.007829134171 0.1354697268 0.005)
            (-0.007928612631 0.1369829378 0.005)
            (-0.008030775251 0.1385369788 0.005)
            (-0.008135694454 0.1401329514 0.005)
            (-0.008243444621 0.141771987 0.005)
            (-0.008354102136 0.1434552476 0.005)
            (-0.008467745447 0.1451839265 0.005)
            (-0.008584455117 0.146959249 0.005)
            (-0.008704313885 0.1487824739 0.005)
            (-0.00882740672 0.1506548937 0.005)
            (-0.008953820884 0.1525778357 0.005)
            (-0.009083645995 0.1545526631 0.005)
            (-0.009216974089 0.1565807759 0.005)
            (-0.009353899682 0.1586636119 0.005)
            (-0.009494519845 0.1608026476 0.005)
            (-0.009638934266 0.1629993995 0.005)
            (-0.009787245322 0.1652554248 0.005)
            (-0.009939558153 0.1675723229 0.005)
            (-0.01009598073 0.1699517362 0.005)
            (-0.01025662397 0.1723953517 0.005)
            (-0.01042160172 0.1749049015 0.005)
            (-0.01059103096 0.1774821649 0.005)
            (-0.01076503179 0.1801289687 0.005)
            (-0.01094372755 0.1828471895 0.005)
            (-0.01112724496 0.1856387541 0.005)
            (-0.01131571408 0.1885056416 0.005)
            (-0.01150926854 0.1914498843 0.005)
            (-0.01170804554 0.1944735696 0.005)
            (-0.011912186 0.1975788408 0.005)
            (-0.01212183465 0.2007678995 0.005)
            (-0.0123371401 0.2040430065 0.005)
            (-0.012558255 0.2074064832 0.005)
            (-0.01278533609 0.2108607145 0.005)
            (-0.01301854435 0.2144081489 0.005)
            (-0.01325804511 0.2180513012 0.005)
            (-0.01350400815 0.2217927543 0.005)
            (-0.01375660784 0.2256351604 0.005)
            (-0.01401602327 0.2295812435 0.005)
            (-0.01428243831 0.2336338011 0.005)
            (-0.01455604186 0.237795706 0.005)
            (-0.01483702786 0.2420699088 0.005)
            (-0.01512559551 0.2464594395 0.005)
            (-0.01542194939 0.2509674098 0.005)
            (-0.01572629957 0.2555970157 0.005)
            (-0.01603886184 0.260351539 0.005)
            (-0.01635985775 0.2652343504 0.005)
            (-0.01668951488 0.2702489113 0.005)
            (-0.01702806692 0.2753987767 0.005)
            (-0.01737575388 0.2806875974 0.005)
            (-0.01773282224 0.2861191227 0.005)
            (-0.01809952513 0.2916972031 0.005)
            (-0.01847612251 0.297425793 0.005)
            (-0.01886288135 0.3033089535 0.005)
            (-0.01926007585 0.3093508554 0.005)
            (-0.01966798758 0.3155557817 0.005)
            (-0.02008690571 0.3219281314 0.005)
            (-0.02051712722 0.3284724218 0.005)
            (-0.0209589571 0.3351932922 0.005)
            (-0.02141270857 0.3420955073 0.005)
            (-0.02187870331 0.3491839601 0.005)
            (-0.02235727167 0.3564636758 0.005)
            (-0.02284141934 0.3638282611 0.005)
            (-0.02332477583 0.3711808113 0.005)
            (-0.02380813233 0.3785333616 0.005)
            (-0.02429148883 0.3858859118 0.005)
            (-0.02477484533 0.3932384621 0.005)
            (-0.02525820182 0.4005910123 0.005)
            (-0.02574155832 0.4079435626 0.005)
            (-0.02622491482 0.4152961129 0.005)
            (-0.02670827131 0.4226486631 0.005)
            (-0.02719162781 0.4300012133 0.005)
            (-0.02767498431 0.4373537637 0.005)
            (-0.02815834081 0.4447063139 0.005)
            (-0.0286416973 0.4520588642 0.005)
            (-0.0291250538 0.4594114144 0.005)
            (-0.0296084103 0.4667639647 0.005)
            (-0.0300917668 0.4741165149 0.005)
            (-0.03057512329 0.4814690652 0.005)
            (-0.03105847979 0.4888216154 0.005)
            (-0.03154183629 0.4961741657 0.005)
            (-0.03202519279 0.503526716 0.005)
            (-0.03250854928 0.5108792663 0.005)
            (-0.03299190578 0.5182318165 0.005)
            (-0.03347526228 0.5255843667 0.005)
            (-0.03395861877 0.532936917 0.005)
            (-0.03444197527 0.5402894673 0.005)
            (-0.03492533176 0.5476420175 0.005)
            (-0.03540868826 0.5549945678 0.005)
            (-0.03589204476 0.5623471181 0.005)
            (-0.03637540126 0.5696996683 0.005)
            (-0.03685875775 0.5770522185 0.005)
            (-0.03734211425 0.5844047688 0.005)
            (-0.03782547075 0.5917573191 0.005)
            (-0.03830882724 0.5991098693 0.005)
            (-0.03879218374 0.6064624196 0.005)
            (-0.03927554024 0.6138149699 0.005)
            (-0.03975889674 0.6211675201 0.005)
            (-0.04024225323 0.6285200704 0.005)
            (-0.04072560973 0.6358726207 0.005)
            (-0.02284141934 0.3638282611 0.005)
            (-0.02332477583 0.3711808113 0.005)
            (-0.02380813233 0.3785333616 0.005)
            (-0.02429148883 0.3858859118 0.005)
            (-0.02477484533 0.3932384621 0.005)
            (-0.02525820182 0.4005910123 0.005)
            (-0.02574155832 0.4079435626 0.005)
            (-0.02622491482 0.4152961129 0.005)
            (-0.02670827131 0.4226486631 0.005)
            (-0.02719162781 0.4300012133 0.005)
            (-0.02767498431 0.4373537637 0.005)
            (-0.02815834081 0.4447063139 0.005)
            (-0.0286416973 0.4520588642 0.005)
            (-0.0291250538 0.4594114144 0.005)
            (-0.0296084103 0.4667639647 0.005)
            (-0.0300917668 0.4741165149 0.005)
            (-0.03057512329 0.4814690652 0.005)
            (-0.03105847979 0.4888216154 0.005)
            (-0.03154183629 0.4961741657 0.005)
            (-0.03202519279 0.503526716 0.005)
            (-0.03250854928 0.5108792663 0.005)
            (-0.03299190578 0.5182318165 0.005)
            (-0.03347526228 0.5255843667 0.005)
            (-0.03395861877 0.532936917 0.005)
            (-0.03444197527 0.5402894673 0.005)
            (-0.03492533176 0.5476420175 0.005)
            (-0.03540868826 0.5549945678 0.005)
            (-0.03589204476 0.5623471181 0.005)
            (-0.03637540126 0.5696996683 0.005)
            (-0.03685875775 0.5770522185 0.005)
            (-0.03734211425 0.5844047688 0.005)
            (-0.03782547075 0.5917573191 0.005)
            (-0.03830882724 0.5991098693 0.005)
            (-0.03879218374 0.6064624196 0.005)
            (-0.03927554024 0.6138149699 0.005)
            (-0.03975889674 0.6211675201 0.005)
            (-0.04024225323 0.6285200704 0.005)
            (-0.04072560973 0.6358726207 0.005)
        );
    }
    pressureOutletProbes
    {
        type    cloud;
        axis    xyz;
        points
        (
            (-0.3755562624 -0.05661490365 0.005)
            (-0.375563615 -0.05665163641 0.005)
            (-0.375571166 -0.0566893603 0.005)
            (-0.3755789206 -0.05672810207 0.005)
            (-0.3755868845 -0.05676788918 0.005)
            (-0.3755950634 -0.05680874984 0.005)
            (-0.3756034629 -0.05685071302 0.005)
            (-0.3756120889 -0.05689380846 0.005)
            (-0.3756209478 -0.05693806671 0.005)
            (-0.3756300457 -0.05698351916 0.005)
            (-0.3756393891 -0.05703019802 0.005)
            (-0.3756489846 -0.05707813638 0.005)
            (-0.375658839 -0.05712736822 0.005)
            (-0.3756689593 -0.05717792846 0.005)
            (-0.3756793526 -0.05722985293 0.005)
            (-0.3756900264 -0.05728317844 0.005)
            (-0.3757009882 -0.0573379428 0.005)
            (-0.3757122458 -0.05739418482 0.005)
            (-0.3757238071 -0.05745194439 0.005)
            (-0.3757356804 -0.05751126245 0.005)
            (-0.3757478741 -0.05757218104 0.005)
            (-0.3757603968 -0.05763474336 0.005)
            (-0.3757732573 -0.05769899374 0.005)
            (-0.3757864649 -0.05776497777 0.005)
            (-0.3758000288 -0.05783274218 0.005)
            (-0.3758139587 -0.05790233505 0.005)
            (-0.3758282645 -0.05797380568 0.005)
            (-0.3758429563 -0.05804720476 0.005)
            (-0.3758580445 -0.05812258432 0.005)
            (-0.3758735398 -0.05819999778 0.005)
            (-0.3758894533 -0.05827950005 0.005)
            (-0.375905796 -0.05836114747 0.005)
            (-0.3759225798 -0.05844499793 0.005)
            (-0.3759398165 -0.05853111086 0.005)
            (-0.3759575182 -0.05861954733 0.005)
            (-0.3759756975 -0.05871037001 0.005)
            (-0.3759943674 -0.0588036433 0.005)
            (-0.376013541 -0.05889943332 0.005)
            (-0.3760332319 -0.05899780797 0.005)
            (-0.3760534543 -0.05909883701 0.005)
            (-0.3760742222 -0.05920259203 0.005)
            (-0.3760955505 -0.05930914662 0.005)
            (-0.3761174542 -0.05941857628 0.005)
            (-0.3761399491 -0.05953095862 0.005)
            (-0.3761630508 -0.05964637328 0.005)
            (-0.3761867759 -0.05976490211 0.005)
            (-0.3762111411 -0.05988662911 0.005)
            (-0.3762361638 -0.0600116406 0.005)
            (-0.3762618617 -0.06014002518 0.005)
            (-0.376288253 -0.06027187387 0.005)
            (-0.3763153563 -0.06040728016 0.005)
            (-0.3763431909 -0.06054634 0.005)
            (-0.3763717766 -0.06068915201 0.005)
            (-0.3764011336 -0.06083581743 0.005)
            (-0.3764312827 -0.0609864402 0.005)
            (-0.3764622454 -0.06114112714 0.005)
            (-0.3764940434 -0.06129998788 0.005)
            (-0.3765266995 -0.06146313505 0.005)
            (-0.3765602366 -0.06163068432 0.005)
            (-0.3765946787 -0.06180275444 0.005)
            (-0.3766300502 -0.06197946743 0.005)
            (-0.3766663759 -0.06216094853 0.005)
            (-0.3767036819 -0.06234732641 0.005)
            (-0.3767419945 -0.0625387332 0.005)
            (-0.3767813409 -0.06273530459 0.005)
            (-0.3768217488 -0.06293717993 0.005)
            (-0.3768632471 -0.06314450233 0.005)
            (-0.3769058652 -0.06335741878 0.005)
            (-0.3769496331 -0.0635760802 0.005)
            (-0.376994582 -0.06380064162 0.005)
            (-0.3770407437 -0.06403126221 0.005)
            (-0.377088151 -0.0642681055 0.005)
            (-0.3771368374 -0.06451133935 0.005)
            (-0.3771868376 -0.06476113622 0.005)
            (-0.3772381868 -0.06501767318 0.005)
            (-0.3772909215 -0.06528113211 0.005)
            (-0.3773450792 -0.06555169977 0.005)
            (-0.3774006981 -0.06582956798 0.005)
            (-0.3774578178 -0.0661149337 0.005)
            (-0.3775164788 -0.06640799926 0.005)
            (-0.3775767225 -0.0667089724 0.005)
            (-0.3776385917 -0.0670180665 0.005)
            (-0.3777021303 -0.06733550067 0.005)
            (-0.3777673833 -0.06766149995 0.005)
            (-0.377834397 -0.06799629544 0.005)
            (-0.3779032189 -0.0683401245 0.005)
            (-0.3779738978 -0.06869323085 0.005)
            (-0.3780464837 -0.06905586484 0.005)
            (-0.3781210282 -0.06942828352 0.005)
            (-0.378197584 -0.06981075092 0.005)
            (-0.3782762055 -0.07020353818 0.005)
            (-0.3783569485 -0.07060692375 0.005)
            (-0.37843987 -0.0710211936 0.005)
            (-0.378525029 -0.0714466414 0.005)
            (-0.3786124857 -0.07188356877 0.005)
            (-0.3787023022 -0.07233228546 0.005)
            (-0.3787945421 -0.07279310955 0.005)
            (-0.378889271 -0.07326636776 0.005)
            (-0.3789865558 -0.07375239556 0.005)
            (-0.3790864656 -0.07425153751 0.005)
            (-0.3791890712 -0.07476414747 0.005)
            (-0.3792944453 -0.07529058884 0.005)
            (-0.3794026627 -0.07583123481 0.005)
            (-0.3795138001 -0.07638646865 0.005)
            (-0.3796279361 -0.076956684 0.005)
            (-0.3797451518 -0.07754228507 0.005)
            (-0.3798655303 -0.07814368702 0.005)
            (-0.3799891569 -0.07876131619 0.005)
            (-0.3801161191 -0.07939561041 0.005)
            (-0.3802465071 -0.08004701936 0.005)
            (-0.3803804134 -0.08071600484 0.005)
            (-0.3805179327 -0.0814030411 0.005)
            (-0.3806591625 -0.08210861518 0.005)
            (-0.3808042031 -0.08283322728 0.005)
            (-0.3809531573 -0.0835773911 0.005)