/*--------------------------------*- C++ -*----------------------------------*\
| =========                 |                                                 |
| \\      /  F ield         | OpenFOAM: The Open Source CFD Toolbox           |
|  \\    /   O peration     | Version:  v2412                                 |
|   \\  /    A nd           | Website:  www.openfoam.com                      |
|    \\/     M anipulation  |                                                 |
\*---------------------------------------------------------------------------*/
FoamFile
{
    version     2.0;
    format      ascii;
    class       dictionary;
    object      sampleDict;
}
// * * * * * * * * * * * * * * * * * * * * * * * * * * * * * * * * * * * * * //

type            sets;
libs            (sampling);

interpolationScheme cellPoint;
setFormat       raw;

fields          (U p);

sets
{
    suctionOutletProbes
    {
        type    cloud;
        axis    xyz;
        points
        (
            (-0.004234008317 0.08078267144 0.005)
            (-0.004237661564 0.08083824259 0.005)
            (-0.004241365181 0.08089457995 0.005)
            (-0.004245119862 0.08095169406 0.005)
            (-0.00424892631 0.08100959565 0.005)
            (-0.004252785241 0.08106829557 0.005)
            (-0.004256697378 0.08112780481 0.005)
            (-0.004260663454 0.08118813455 0.005)
            (-0.004264684212 0.08124929609 0.005)
            (-0.004268760407 0.08131130091 0.005)
            (-0.004272892804 0.08137416062 0.005)
            (-0.004277082177 0.08143788702 0.005)
            (-0.00428132931 0.08150249206 0.005)
            (-0.004285635002 0.08156798786 0.005)
            (-0.004290000059 0.08163438669 0.005)
            (-0.004294425301 0.081701701 0.005)
            (-0.004298911556 0.08176994341 0.005)
            (-0.004303459666 0.08183912673 0.005)
            (-0.004308070483 0.08190926392 0.005)
            (-0.004312744873 0.08198036814 0.005)
            (-0.004317483711 0.08205245272 0.005)
            (-0.004322287887 0.08212553117 0.005)
            (-0.004327158302 0.0821996172 0.005)
            (-0.004332095868 0.08227472471 0.005)
            (-0.00433710151 0.08235086777 0.005)
            (-0.00434217617 0.08242806066 0.005)
            (-0.004347320797 0.08250631787 0.005)
            (-0.004352536356 0.08258565405 0.005)
            (-0.004357823826 0.0826660841 0.005)
            (-0.004363184197 0.08274762308 0.005)
            (-0.004368618475 0.0828302863 0.005)
            (-0.004374127679 0.08291408925 0.005)
            (-0.004379712842 0.08299904765 0.005)
            (-0.004385375011 0.08308517742 0.005)
            (-0.004391115249 0.08317249471 0.005)
            (-0.00439693463 0.0832610159 0.005)
            (-0.004402834247 0.0833507576 0.005)
            (-0.004408815206 0.08344173662 0.005)
            (-0.004414878628 0.08353397003 0.005)
            (-0.00442102565 0.08362747512 0.005)
            (-0.004427257426 0.08372226942 0.005)
            (-0.004433575123 0.08381837072 0.005)
            (-0.004439979927 0.08391579703 0.005)
            (-0.004446473037 0.08401456661 0.005)
            (-0.004453055672 0.08411469799 0.005)
            (-0.004459729066 0.08421620995 0.005)
            (-0.00446649447 0.08431912153 0.005)
            (-0.004473353154 0.084423452 0.005)
            (-0.004480306403 0.08452922095 0.005)
            (-0.00448735552 0.08463644821 0.005)
            (-0.004494501828 0.08474515388 0.005)
            (-0.004501746667 0.08485535833 0.005)
            (-0.004509091395 0.08496708226 0.005)
            (-0.00451653739 0.08508034659 0.005)
            (-0.004524086048 0.08519517258 0.005)
            (-0.004531738784 0.08531158174 0.005)
            (-0.004539497033 0.0854295959 0.005)
            (-0.004547362249 0.0855492372 0.005)
            (-0.004555335909 0.08567052809 0.005)
            (-0.004563419506 0.08579349128 0.005)
            (-0.004571614558 0.08591814984 0.005)
            (-0.0045799226 0.08604452715 0.005)
            (-0.004588345191 0.08617264691 0.005)
            (-0.004596883909 0.08630253314 0.005)
            (-0.004605540355 0.0864342102 0.005)
            (-0.004614316154 0.08656770277 0.005)
            (-0.00462321295 0.08670303589 0.005)
            (-0.004632232412 0.08684023493 0.005)
            (-0.004641376232 0.08697932563 0.005)
            (-0.004650646123 0.08712033406 0.005)
            (-0.004660043824 0.08726328666 0.005)
            (-0.004669571098 0.08740821024 0.005)
            (-0.00467922973 0.08755513198 0.005)
            (-0.004689021531 0.08770407942 0.005)
            (-0.004698948339 0.0878550805 0.005)
            (-0.004709012013 0.08800816353 0.005)
            (-0.004719214443 0.0881633572 0.005)
            (-0.004729557539 0.08832069064 0.005)
            (-0.004740043242 0.08848019333 0.005)
            (-0.004750673519 0.0886418952 0.005)
            (-0.004761450363 0.08880582654 0.005)
            (-0.004772375793 0.08897201811 0.005)
            (-0.00478345186 0.08914050108 0.005)
            (-0.004794680639 0.08931130703 0.005)
            (-0.004806064237 0.08948446799 0.005)
            (-0.004817604788 0.08966001643 0.005)
            (-0.004829304456 0.08983798528 0.005)
            (-0.004841165435 0.09001840789 0.005)
            (-0.004853189948 0.09020131811 0.005)
            (-0.004865380252 0.09038675022 0.005)
            (-0.004877738631 0.09057473901 0.005)
            (-0.004890267403 0.09076531972 0.005)
            (-0.004902968917 0.09095852809 0.005)
            (-0.004915845555 0.09115440035 0.005)
            (-0.004928899732 0.09135297322 0.005)
            (-0.004942133895 0.09155428396 0.005)
            (-0.004955550526 0.09175837029 0.005)
            (-0.00496915214 0.09196527049 0.005)
            (-0.004982941289 0.09217502335 0.005)
            (-0.004996920558 0.09238766822 0.005)
            (-0.005011092568 0.09260324495 0.005)
            (-0.005025459977 0.09282179398 0.005)
            (-0.005040025478 0.09304335629 0.005)
            (-0.005054791804 0.09326797342 0.005)
            (-0.005069761722 0.0934956875 0.005)
            (-0.00508493804 0.09372654121 0.005)
            (-0.005100323604 0.09396057785 0.005)
            (-0.005115921298 0.0941978413 0.005)
            (-0.005131734048 0.09443837606 0.005)
            (-0.005147764818 0.09468222723 0.005)
            (-0.005164016616 0.09492944053 0.005)
            (-0.005180492487 0.09518006232 0.005)
            (-0.005197195522 0.0954341396 0.005)
            (-0.005214128852 0.09569172 0.005)
            (-0.005231295653 0.09595285183 0.005)
            (-0.005248699143 0.09621758405 0.005)
            (-0.005266342587 0.09648596631 0.005)
            (-0.005284229292 0.09675804892 0.005)
            (-0.005302362613 0.09703388291 0.005)
            (-0.00532074595 0.09731352001 0.005)
            (-0.005339382749 0.09759701264 0.005)
            (-0.005358276507 0.09788441397 0.005)
            (-0.005377430764 0.09817577788 0.005)
            (-0.005396849113 0.09847115902 0.005)
            (-0.005416535197 0.09877061277 0.005)
            (-0.005436492705 0.09907419527 0.005)
            (-0.005456725379 0.09938196348 0.005)
            (-0.005477237014 0.09969397507 0.005)
            (-0.005498031457 0.1000102886 0.005)
            (-0.005519112607 0.1003309633 0.005)
            (-0.005540484415 0.1006560593 0.005)
            (-0.005562150891 0.1009856378 0.005)
            (-0.005584116095 0.1013197603 0.005)
            (-0.005606384149 0.1016584895 0.005)
            (-0.005628959227 0.102001889 0.005)
            (-0.005651845562 0.1023500232 0.005)
            (-0.005675047445 0.1027029574 0.005)
            (-0.005698569228 0.1030607576 0.005)
            (-0.00572241532 0.1034234911 0.005)
            (-0.005746590194 0.1037912259 0.005)
            (-0.005771098384 0.1041640308 0.005)
            (-0.005795944483 0.1045419758 0.005)
            (-0.00582113315 0.1049251319 0.005)
            (-0.005846669111 0.1053135707 0.005)
            (-0.005872557152 0.1057073652 0.005)
            (-0.005898802129 0.1061065891 0.005)
            (-0.005925408962 0.1065113175 0.005)
            (-0.00595238264 0.1069216261 0.005)
            (-0.005979728223 0.1073375919 0.005)
            (-0.006007450836 0.1077592929 0.005)
            (-0.006035555678 0.1081868081 0.005)
            (-0.00606404802 0.1086202178 0.005)
            (-0.006092933205 0.1090596032 0.005)
            (-0.006122216648 0.1095050466 0.005)
            (-0.006151903841 0.1099566316 0.005)
            (-0.006182000351 0.110414443 0.005)
            (-0.00621251182 0.1108785666 0.005)
            (-0.006243443971 0.1113490892 0.005)
            (-0.006274802603 0.1118260993 0.005)
            (-0.006306593597 0.1123096862 0.005)
            (-0.006338822913 0.1127999407 0.005)
            (-0.006371496596 0.1132969546 0.005)
            (-0.006404620773 0.1138008212 0.005)
            (-0.006438201654 0.1143116348 0.005)
            (-0.006472245536 0.1148294914 0.005)
            (-0.006506758803 0.115354488 0.005)
            (-0.006541747927 0.1158867231 0.005)
            (-0.006577219468 0.1164262965 0.005)
            (-0.006613180078 0.1169733093 0.005)
            (-0.0066496365 0.1175278641 0.005)
            (-0.00668659557 0.118090065 0.005)
            (-0.006724064219 0.1186600172 0.005)
            (-0.006762049473 0.1192378278 0.005)
            (-0.006800558454 0.119823605 0.005)
            (-0.006839598383 0.1204174587 0.005)
            (-0.006879176581 0.1210195002 0.005)
            (-0.006919300468 0.1216298424 0.005)
            (-0.00695997757 0.1222485999 0.005)
            (-0.007001215513 0.1228758885 0.005)
            (-0.00704302203 0.123511826 0.005)
            (-0.00708540496 0.1241565316 0.005)
            (-0.007128372252 0.1248101261 0.005)
            (-0.007171931961 0.1254727322 0.005)
            (-0.007216092256 0.1261444741 0.005)
            (-0.007260861418 0.1268254777 0.005)
            (-0.00730624784 0.1275158707 0.005)
            (-0.007352260034 0.1282157826 0.005)
            (-0.007398906629 0.1289253447 0.005)
            (-0.00744619637 0.12964469 0.005)
            (-0.007494138126 0.1303739532 0.005)
            (-0.007542740885 0.1311132714 0.005)
            (-0.007592013762 0.131862783 0.005)
            (-0.007641965995 0.1326226286 0.005)
            (-0.007692606953 0.1333929507 0.005)
            (-0.007743946129 0.1341738937 0.005)
            (-0.007795993152 0.134965604 0.005)
            (-0.007848757781 0.1357682303 0.005)
            (-0.00790224991 0.1365819228 0.005)
            (-0.007956479569 0.1374068342 0.005)
            (-0.008011456928 0.1382431192 0.005)
            (-0.008067192296 0.1390909346 0.005)
            (-0.008123696122 0.1399504395 0.005)
            (-0.008180979004 0.1408217948 0.005)
            (-0.00823905168 0.141705164 0.005)
            (-0.008297925043 0.1426007129 0.005)
            (-0.00835761013 0.1435086093 0.005)
            (-0.008418118135 0.1444290234 0.005)
            (-0.008479460403 0.1453621279 0.005)
            (-0.008541648435 0.1463080976 0.005)
            (-0.008604693895 0.14726711 0.005)
            (-0.008668608603 0.148239345 0.005)
            (-0.008733404544 0.1492249849 0.005)
            (-0.008799093868 0.1502242144 0.005)
            (-0.008865688893 0.1512372209 0.005)
            (-0.008933202108 0.1522641943 0.005)
            (-0.00900164617 0.1533053274 0.005)
            (-0.009071033915 0.1543608151 0.005)
            (-0.009141378353 0.1554308556 0.005)
            (-0.009212692675 0.1565156494 0.005)
            (-0.009284990255 0.1576154 0.005)
            (-0.009358284647 0.1587303136 0.005)
            (-0.009432589597 0.1598605991 0.005)
            (-0.009507919036 0.1610064687 0.005)
            (-0.009584287091 0.162168137 0.005)
            (-0.009661708082 0.1633458221 0.005)
            (-0.009740196526 0.1645397446 0.005)
            (-0.009819767141 0.1657501286 0.005)
            (-0.009900434847 0.1669772009 0.005)
            (-0.00998221477 0.1682211916 0.005)
            (-0.01006512224 0.1694823341 0.005)
            (-0.01014917282 0.1707608647 0.005)
            (-0.01023438226 0.1720570232 0.005)
            (-0.01032076653 0.1733710528 0.005)
            (-0.01040834184 0.1747031996 0.005)
            (-0.01049712461 0.1760537137 0.005)
            (-0.01058713148 0.1774228482 0.005)
            (-0.01067837933 0.1788108598 0.005)
            (-0.01077088527 0.1802180088 0.005)
            (-0.01086466665 0.181644559 0.005)
            (-0.01095974107 0.1830907781 0.005)
            (-0.01105612633 0.1845569371 0.005)
            (-0.01115384052 0.186043311 0.005)
            (-0.01125290196 0.1875501785 0.005)
            (-0.01135332921 0.1890778221 0.005)
            (-0.01145514113 0.1906265284 0.005)
            (-0.01155835679 0.1921965877 0.005)
            (-0.01166299555 0.1937882944 0.005)
            (-0.01176907704 0.1954019469 0.005)
            (-0.01187662113 0.1970378479 0.005)
            (-0.01198564802 0.1986963042 0.005)
            (-0.01209617812 0.2003776266 0.005)
            (-0.01220823217 0.2020821306 0.005)
            (-0.01232183118 0.2038101356 0.005)
            (-0.01243699647 0.2055619657 0.005)
            (-0.0125537496 0.2073379495 0.005)
            (-0.01267211249 0.2091384199 0.005)
            (-0.01279210732 0.2109637146 0.005)
            (-0.01291375659 0.2128141757 0.005)
            (-0.01303708313 0.2146901503 0.005)
            (-0.01316211004 0.2165919902 0.005)
            (-0.01328886078 0.2185200521 0.005)
            (-0.01341735912 0.2204746974 0.005)
            (-0.01354762915 0.2224562926 0.005)
            (-0.0136796953 0.2244652093 0.005)
            (-0.01381358232 0.2265018243 0.005)
            (-0.01394931533 0.2285665194 0.005)
            (-0.01408691978 0.2306596818 0.005)
            (-0.01422642147 0.232781704 0.005)
            (-0.01436784656 0.2349329838 0.005)
            (-0.01451122157 0.2371139247 0.005)
            (-0.01465657338 0.2393249356 0.005)
            (-0.01480392926 0.2415664312 0.005)
            (-0.01495331682 0.2438388318 0.005)
            (-0.01510476408 0.2461425634 0.005)
            (-0.01525829946 0.248478058 0.005)
            (-0.01541395171 0.2508457537 0.005)
            (-0.01557175005 0.2532460942 0.005)
            (-0.01573172406 0.2556795298 0.005)
            (-0.01589390372 0.2581465167 0.005)
            (-0.01605831947 0.2606475176 0.005)
            (-0.01622500212 0.2631830014 0.005)
            (-0.01639398293 0.2657534436 0.005)
            (-0.01656529359 0.2683593261 0.005)
            (-0.01673896622 0.2710011375 0.005)
            (-0.01691503339 0.2736793734 0.005)
            (-0.0170935281 0.2763945358 0.005)
            (-0.01727448385 0.2791471339 0.005)
            (-0.01745793454 0.2819376838 0.005)
            (-0.01764391458 0.2847667089 0.005)
            (-0.01783245886 0.2876347395 0.005)
            (-0.01802360271 0.2905423135 0.005)
            (-0.01821738198 0.2934899761 0.005)
            (-0.01841383302 0.29647828 0.005)
            (-0.01861299266 0.2995077856 0.005)
            (-0.01881489823 0.302579061 0.005)
            (-0.01901958761 0.3056926821 0.005)
            (-0.01922709918 0.3088492326 0.005)
            (-0.01943747184 0.3120493045 0.005)
            (-0.01965074505 0.3152934979 0.005)
            (-0.01986695878 0.3185824211 0.005)
            (-0.004234008317 0.08078267144 0.005)
            (-0.004237661564 0.08083824259 0.005)
            (-0.004241365181 0.08089457995 0.005)
            (-0.004245119862 0.08095169406 0.005)
            (-0.00424892631 0.08100959565 0.005)
            (-0.004252785241 0.08106829557 0.005)
            (-0.004256697378 0.08112780481 0.005)
            (-0.004260663454 0.08118813455 0.005)
            (-0.004264684212 0.08124929609 0.005)
            (-0.004268760407 0.08131130091 0.005)
            (-0.004272892804 0.08137416062 0.005)
            (-0.004277082177 0.08143788702 0.005)
            (-0.00428132931 0.08150249206 0.005)
            (-0.004285635002 0.08156798786 0.005)
            (-0.004290000059 0.08163438669 0.005)
            (-0.004294425301 0.081701701 0.005)
            (-0.004298911556 0.08176994341 0.005)
            (-0.004303459666 0.08183912673 0.005)
            (-0.004308070483 0.08190926392 0.005)
            (-0.004312744873 0.08198036814 0.005)
            (-0.004317483711 0.08205245272 0.005)
            (-0.004322287887 0.08212553117 0.005)
            (-0.004327158302 0.0821996172 0.005)
            (-0.004332095868 0.08227472471 0.005)
            (-0.00433710151 0.08235086777 0.005)
            (-0.00434217617 0.08242806066 0.005)
            (-0.004347320797 0.08250631787 0.005)
            (-0.004352536356 0.08258565405 0.005)
            (-0.004357823826 0.0826660841 0.005)
            (-0.004363184197 0.08274762308 0.005)
            (-0.004368618475 0.0828302863 0.005)
            (-0.004374127679 0.08291408925 0.005)
            (-0.004379712842 0.08299904765 0.005)
            (-0.004385375011 0.08308517742 0.005)
            (-0.004391115249 0.08317249471 0.005)
            (-0.00439693463 0.0832610159 0.005)
            (-0.004402834247 0.0833507576 0.005)
            (-0.004408815206 0.08344173662 0.005)
            (-0.004414878628 0.08353397003 0.005)
            (-0.00442102565 0.08362747512 0.005)
            (-0.004427257426 0.08372226942 0.005)
            (-0.004433575123 0.08381837072 0.005)
            (-0.004439979927 0.08391579703 0.005)
            (-0.004446473037 0.08401456661 0.005)
            (-0.004453055672 0.08411469799 0.005)
            (-0.004459729066 0.08421620995 0.005)
            (-0.00446649447 0.08431912153 0.005)
            (-0.004473353154 0.084423452 0.005)
            (-0.004480306403 0.08452922095 0.005)
            (-0.00448735552 0.08463644821 0.005)
            (-0.004494501828 0.08474515388 0.005)
            (-0.004501746667 0.08485535833 0.005)
            (-0.004509091395 0.08496708226 0.005)
            (-0.00451653739 0.08508034659 0.005)
            (-0.004524086048 0.08519517258 0.005)
            (-0.004531738784 0.08531158174 0.005)
            (-0.004539497033 0.0854295959 0.005)
            (-0.004547362249 0.0855492372 0.005)
            (-0.004555335909 0.08567052809 0.005)
            (-0.004563419506 0.08579349128 0.005)
            (-0.004571614558 0.08591814984 0.005)
            (-0.0045799226 0.08604452715 0.005)
            (-0.004588345191 0.08617264691 0.005)
            (-0.004596883909 0.08630253314 0.005)
            (-0.004605540355 0.0864342102 0.005)
            (-0.004614316154 0.08656770277 0.005)
            (-0.00462321295 0.08670303589 0.005)
            (-0.004632232412 0.08684023493 0.005)
            (-0.004641376232 0.08697932563 0.005)
            (-0.004650646123 0.08712033406 0.005)
            (-0.004660043824 0.08726328666 0.005)
            (-0.004669571098 0.08740821024 0.005)
            (-0.00467922973 0.08755513198 0.005)
            (-0.004689021531 0.08770407942 0.005)
            (-0.004698948339 0.0878550805 0.005)
            (-0.004709012013 0.08800816353 0.005)
            (-0.004719214443 0.0881633572 0.005)
            (-0.004729557539 0.08832069064 0.005)
            (-0.004740043242 0.08848019333 0.005)
            (-0.004750673519 0.0886418952 0.005)
            (-0.004761450363 0.08880582654 0.005)
            (-0.004772375793 0.08897201811 0.005)
            (-0.00478345186 0.08914050108 0.005)
            (-0.004794680639 0.08931130703 0.005)
            (-0.004806064237 0.08948446799 0.005)
            (-0.004817604788 0.08966001643 0.005)
            (-0.004829304456 0.08983798528 0.005)
            (-0.004841165435 0.09001840789 0.005)
            (-0.004853189948 0.09020131811 0.005)
            (-0.004865380252 0.09038675022 0.005)
            (-0.004877738631 0.09057473901 0.005)
            (-0.004890267403 0.09076531972 0.005)
            (-0.004902968917 0.09095852809 0.005)
            (-0.004915845555 0.09115440035 0.005)
            (-0.004928899732 0.09135297322 0.005)
            (-0.004942133895 0.09155428396 0.005)
            (-0.004955550526 0.09175837029 0.005)
            (-0.00496915214 0.09196527049 0.005)
            (-0.004982941289 0.09217502335 0.005)
            (-0.004996920558 0.09238766822 0.005)
            (-0.005011092568 0.09260324495 0.005)
            (-0.005025459977 0.09282179398 0.005)
            (-0.005040025478 0.09304335629 0.005)
            (-0.005054791804 0.09326797342 0.005)
            (-0.005069761722 0.0934956875 0.005)
            (-0.00508493804 0.09372654121 0.005)
            (-0.005100323604 0.09396057785 0.005)
            (-0.005115921298 0.0941978413 0.005)
            (-0.005131734048 0.09443837606 0.005)
            (-0.005147764818 0.09468222723 0.005)
            (-0.005164016616 0.09492944053 0.005)
            (-0.005180492487 0.09518006232 0.005)
            (-0.005197195522 0.0954341396 0.005)
            (-0.005214128852 0.09569172 0.005)
            (-0.005231295653 0.09595285183 0.005)
            (-0.005248699143 0.09621758405 0.005)
            (-0.005266342587 0.09648596631 0.005)
            (-0.005284229292 0.09675804892 0.005)
            (-0.005302362613 0.09703388291 0.005)
            (-0.00532074595 0.09731352001 0.005)
            (-0.005339382749 0.09759701264 0.005)
            (-0.005358276507 0.09788441397 0.005)
            (-0.005377430764 0.09817577788 0.005)
            (-0.005396849113 0.09847115902 0.005)
            (-0.005416535197 0.09877061277 0.005)
            (-0.005436492705 0.09907419527 0.005)
            (-0.005456725379 0.09938196348 0.005)
            (-0.005477237014 0.09969397507 0.005)
            (-0.005498031457 0.1000102886 0.005)
            (-0.005519112607 0.1003309633 0.005)
            (-0.005540484415 0.1006560593 0.005)
            (-0.005562150891 0.1009856378 0.005)
            (-0.005584116095 0.1013197603 0.005)
            (-0.005606384149 0.1016584895 0.005)
            (-0.005628959227 0.102001889 0.005)
            (-0.005651845562 0.1023500232 0.005)
            (-0.005675047445 0.1027029574 0.005)
            (-0.005698569228 0.1030607576 0.005)
            (-0.00572241532 0.1034234911 0.005)
            (-0.005746590194 0.1037912259 0.005)
            (-0.005771098384 0.1041640308 0.005)
            (-0.005795944483 0.1045419758 0.005)
            (-0.00582113315 0.1049251319 0.005)
            (-0.005846669111 0.1053135707 0.005)
            (-0.005872557152 0.1057073652 0.005)
            (-0.005898802129 0.1061065891 0.005)
            (-0.005925408962 0.1065113175 0.005)
            (-0.00595238264 0.1069216261 0.005)
            (-0.005979728223 0.1073375919 0.005)
            (-0.006007450836 0.1077592929 0.005)
            (-0.006035555678 0.1081868081 0.005)
            (-0.00606404802 0.1086202178 0.005)
            (-0.006092933205 0.1090596032 0.005)
            (-0.006122216648 0.1095050466 0.005)
            (-0.006151903841 0.1099566316 0.005)
            (-0.006182000351 0.110414443 0.005)
            (-0.00621251182 0.1108785666 0.005)
            (-0.006243443971 0.1113490892 0.005)
            (-0.006274802603 0.1118260993 0.005)
            (-0.006306593597 0.1123096862 0.005)
            (-0.006338822913 0.1127999407 0.005)
            (-0.006371496596 0.1132969546 0.005)
            (-0.006404620773 0.1138008212 0.005)
            (-0.006438201654 0.1143116348 0.005)
            (-0.006472245536 0.1148294914 0.005)
            (-0.006506758803 0.115354488 0.005)
            (-0.006541747927 0.1158867231 0.005)
            (-0.006577219468 0.1164262965 0.005)
            (-0.006613180078 0.1169733093 0.005)
            (-0.0066496365 0.1175278641 0.005)
            (-0.00668659557 0.118090065 0.005)
            (-0.006724064219 0.1186600172 0.005)
            (-0.006762049473 0.1192378278 0.005)
            (-0.006800558454 0.119823605 0.005)
            (-0.006839598383 0.1204174587 0.005)
            (-0.006879176581 0.1210195002 0.005)
            (-0.006919300468 0.1216298424 0.005)
            (-0.00695997757 0.1222485999 0.005)
            (-0.007001215513 0.1228758885 0.005)
            (-0.00704302203 0.123511826 0.005)
            (-0.00708540496 0.1241565316 0.005)
            (-0.007128372252 0.1248101261 0.005)
            (-0.007171931961 0.1254727322 0.005)
            (-0.007216092256 0.1261444741 0.005)
            (-0.007260861418 0.1268254777 0.005)
            (-0.00730624784 0.1275158707 0.005)
            (-0.007352260034 0.1282157826 0.005)
            (-0.007398906629 0.1289253447 0.005)
            (-0.00744619637 0.12964469 0.005)
            (-0.007494138126 0.1303739532 0.005)
            (-0.007542740885 0.1311132714 0.005)
            (-0.007592013762 0.131862783 0.005)
            (-0.007641965995 0.1326226286 0.005)
            (-0.007692606953 0.1333929507 0.005)
            (-0.007743946129 0.1341738937 0.005)
            (-0.007795993152 0.134965604 0.005)
            (-0.007848757781 0.1357682303 0.005)
            (-0.00790224991 0.1365819228 0.005)
            (-0.007956479569 0.1374068342 0.005)
            (-0.008011456928 0.1382431192 0.005)
            (-0.008067192296 0.1390909346 0.005)
            (-0.008123696122 0.1399504395 0.005)
            (-0.008180979004 0.1408217948 0.005)
            (-0.00823905168 0.141705164 0.005)
            (-0.008297925043 0.1426007129 0.005)
            (-0.00835761013 0.1435086093 0.005)
            (-0.008418118135 0.1444290234 0.005)
            (-0.008479460403 0.1453621279 0.005)
            (-0.008541648435 0.1463080976 0.005)
            (-0.008604693895 0.14726711 0.005)
            (-0.008668608603 0.148239345 0.005)
            (-0.008733404544 0.1492249849 0.005)
            (-0.008799093868 0.1502242144 0.005)
            (-0.008865688893 0.1512372209 0.005)
            (-0.008933202108 0.1522641943 0.005)
            (-0.00900164617 0.1533053274 0.005)
            (-0.009071033915 0.1543608151 0.005)
            (-0.009141378353 0.1554308556 0.005)
            (-0.009212692675 0.1565156494 0.005)
            (-0.009284990255 0.1576154 0.005)
            (-0.009358284647 0.1587303136 0.005)
            (-0.009432589597 0.1598605991 0.005)
            (-0.009507919036 0.1610064687 0.005)
            (-0.009584287091 0.162168137 0.005)
            (-0.009661708082 0.1633458221 0.005)
            (-0.009740196526 0.1645397446 0.005)
            (-0.009819767141 0.1657501286 0.005)
            (-0.009900434847 0.1669772009 0.005)
            (-0.00998221477 0.1682211916 0.005)
            (-0.01006512224 0.1694823341 0.005)
            (-0.01014917282 0.1707608647 0.005)
            (-0.01023438226 0.1720570232 0.005)
            (-0.01032076653 0.1733710528 0.005)
            (-0.01040834184 0.1747031996 0.005)
            (-0.01049712461 0.1760537137 0.005)
            (-0.01058713148 0.1774228482 0.005)
            (-0.01067837933 0.1788108598 0.005)
            (-0.01077088527 0.1802180088 0.005)
            (-0.01086466665 0.181644559 0.005)
            (-0.01095974107 0.1830907781 0.005)
            (-0.01105612633 0.1845569371 0.005)
            (-0.01115384052 0.186043311 0.005)
            (-0.01125290196 0.1875501785 0.005)
            (-0.01135332921 0.1890778221 0.005)
            (-0.01145514113 0.1906265284 0.005)
            (-0.01155835679 0.1921965877 0.005)
            (-0.01166299555 0.1937882944 0.005)
            (-0.01176907704 0.1954019469 0.005)
            (-0.01187662113 0.1970378479 0.005)
            (-0.01198564802 0.1986963042 0.005)
            (-0.01209617812 0.2003776266 0.005)
            (-0.01220823217 0.2020821306 0.005)
            (-0.01232183118 0.2038101356 0.005)
            (-0.01243699647 0.2055619657 0.005)
            (-0.0125537496 0.2073379495 0.005)
            (-0.01267211249 0.2091384199 0.005)
            (-0.01279210732 0.2109637146 0.005)
            (-0.01291375659 0.2128141757 0.005)
            (-0.01303708313 0.2146901503 0.005)
            (-0.01316211004 0.2165919902 0.005)
            (-0.01328886078 0.2185200521 0.005)
            (-0.01341735912 0.2204746974 0.005)
            (-0.01354762915 0.2224562926 0.005)
            (-0.0136796953 0.2244652093 0.005)
            (-0.01381358232 0.2265018243 0.005)
            (-0.01394931533 0.2285665194 0.005)
            (-0.01408691978 0.2306596818 0.005)
            (-0.01422642147 0.232781704 0.005)
            (-0.01436784656 0.2349329838 0.005)
            (-0.01451122157 0.2371139247 0.005)
            (-0.01465657338 0.2393249356 0.005)
            (-0.01480392926 0.2415664312 0.005)
            (-0.01495331682 0.2438388318 0.005)
            (-0.01510476408 0.2461425634 0.005)
            (-0.01525829946 0.248478058 0.005)
            (-0.01541395171 0.2508457537 0.005)
            (-0.01557175005 0.2532460942 0.005)
            (-0.01573172406 0.2556795298 0.005)
            (-0.01589390372 0.2581465167 0.005)
            (-0.01605831947 0.2606475176 0.005)
            (-0.01622500212 0.2631830014 0.005)
            (-0.01639398293 0.2657534436 0.005)
            (-0.01656529359 0.2683593261 0.005)
            (-0.01673896622 0.2710011375 0.005)
            (-0.01691503339 0.2736793734 0.005)
            (-0.0170935281 0.2763945358 0.005)
            (-0.01727448385 0.2791471339 0.005)
            (-0.01745793454 0.2819376838 0.005)
            (-0.01764391458 0.2847667089 0.005)
            (-0.01783245886 0.2876347395 0.005)
            (-0.01802360271 0.2905423135 0.005)
            (-0.01821738198 0.2934899761 0.005)
            (-0.01841383302 0.29647828 0.005)