/*--------------------------------*- C++ -*----------------------------------*\
| =========                 |                                                 |
| \\      /  F ield         | OpenFOAM: The Open Source CFD Toolbox           |
|  \\    /   O peration     | Version:  v2312                                 |
|   \\  /    A nd           | Website:  www.openfoam.com                      |
|    \\/     M anipulation  |                                                 |
\*---------------------------------------------------------------------------*/
FoamFile
{
    version     2.0;
    format      ascii;
    class       volScalarField;
    object      omega;
}
// * * * * * * * * * * * * * * * * * * * * * * * * * * * * * * * * * * * * * //

#include "../constant/inputParam"

omegaInlet      #calc "sqrt(1.5 * pow($flowParam.freeStreamVelocity * $flowParam.turbulenceIntensity, 2)) / (pow(0.09, 0.25) * $flowParam.turbLengthScale)";

dimensions      [0 0 -1 0 0 0 0];

internalField   uniform $omegaInlet;

boundaryField
{
    inlet
    {
        type            fixedValue;
        value           $internalField;
    }
    outlet
    {
        type            inletOutlet;
        inletValue      $internalField;
        value           $internalField;
    } 
    airfoil
    {
        type            omegaWallFunction;
        value           $internalField;
    }
    left
    {
        type            symmetryPlane;
    }
    right
    {
        type            symmetryPlane;
    }  
    upperWall
    {
        type            omegaWallFunction;
        value           $internalField;
    }
    lowerWall
    {
        type            omegaWallFunction;
        value           $internalField;
    }
}


// ************************************************************************* //
