/*--------------------------------*- C++ -*----------------------------------*\
  =========                 |
  \\      /  F ield         | OpenFOAM: The Open Source CFD Toolbox
   \\    /   O peration     | Website:  https://openfoam.org
    \\  /    A nd           | Version:  6
     \\/     M anipulation  |
\*---------------------------------------------------------------------------*/
FoamFile
{
    version     2.0;
    format      ascii;
    class       volVectorField;
    object      U;
}
// * * * * * * * * * * * * * * * * * * * * * * * * * * * * * * * * * * * * * //

#include "../system/inputParameters"

dimensions      [0 1 -1 0 0 0 0];

internalField   uniform ($freeStreamVelocity 0 0);

boundaryField
{
    inlet
    {
        type            fixedValue;
        value           uniform ($freeStreamVelocity 0 0);
    }
    outlet
    {
        //type            zeroGradient;
        type            inletOutlet;
        inletValue      $internalField;
        value           $internalField;
    }
    airfoil
    {
        type            noSlip;
    }
    left
    {
        type            symmetryPlane;
    }
    right
    {
        type            symmetryPlane;
    }
    upperWall
    {
        type            noSlip;
    }
    lowerWall
    {
        type            noSlip;
    }
}

// ************************************************************************* //
