/*--------------------------------*- C++ -*----------------------------------*\
| =========                 |                                                 |
| \\      /  F ield         | OpenFOAM: The Open Source CFD Toolbox           |
|  \\    /   O peration     | Version:  1.6                                   |
|   \\  /    A nd           | Web:      www.OpenFOAM.org                      |
|    \\/     M anipulation  |                                                 |
\*---------------------------------------------------------------------------*/
FoamFile
{
    version     2.0;
    format      ascii;
    class       dictionary;
    location    "system";
    object      controlDict;
}
// * * * * * * * * * * * * * * * * * * * * * * * * * * * * * * * * * * * * * //

application     simpleFoam;

startFrom       startTime;

startTime       0;

stopAt          endTime;

endTime         100000;

deltaT          1;

writeControl    timeStep;

writeInterval   #calc "$endTime / 100" ;

purgeWrite      0;

writeFormat     ascii;

writePrecision  6;

writeCompression off;

timeFormat      general;

timePrecision   6;

runTimeModifiable true;

functions
{
    solverInfo
    {
        type            solverInfo;
        libs            ("libutilityFunctionObjects.so");
        writeResidualFields no;
        fields          ("U" "p");
    }

    yPlus
    {
        type                 yPlus;
        libs                 ("libfieldFunctionObjects.so");
        executeControl       writeTime;
        writeControl         writeTime;
    }

    writeMidPlane
    {
        type            coded;
        libs            ("libutilityFunctionObjects.so");
        name            writeMidPlane;
        executeControl  writeTime;
        writeControl    none;

        codeInclude
        #{
            #include "OFstream.H"
            #include <fstream>
        #};

        codeExecute
        #{
            const fvMesh& mesh = refCast<const fvMesh>(obr_);
            const volVectorField& U =
                mesh.lookupObject<volVectorField>("U");
            const volScalarField& p =
                mesh.lookupObject<volScalarField>("p");
            const vectorField& C = mesh.C();

            // Read output format from inputParam
            IOdictionary inputParam
            (
                IOobject
                (
                    "inputParam", "constant", mesh,
                    IOobject::MUST_READ, IOobject::NO_WRITE
                )
            );
            const dictionary& d = inputParam.subDict("Upinlet");
            const word fmt = d.lookupOrDefault<word>("outputFormat", "csv");
            const bool wallExtrap = d.lookupOrDefault<bool>("wallExtrapolation", false);

            const scalar zTarget = 0.0;
            const scalar zTol    = 1e-3;

            // Collect cells on the mid-plane
            DynamicList<label> cells;
            forAll(C, cellI)
            {
                if (mag(C[cellI].z() - zTarget) < zTol)
                {
                    cells.append(cellI);
                }
            }

            // ── Wall extrapolation: add wall face centres with u=v=w=0 ──
            // p is extrapolated from the two nearest interior cells (2nd order)
            DynamicList<label> wallFaces;
            scalarField wallP;
            if (wallExtrap)
            {
                label patchID = mesh.boundaryMesh().findPatchID("plate");
                if (patchID >= 0)
                {
                    const polyPatch& pp = mesh.boundaryMesh()[patchID];
                    const vectorField faceCentres(pp.faceCentres());  // copy to avoid dangling ref

                    // For 2nd-order extrapolation, find the two nearest
                    // mid-plane cells to each wall face (sorted by distance)
                    forAll(faceCentres, fi)
                    {
                        if (mag(faceCentres[fi].z() - zTarget) > zTol) continue;

                        // Find two closest mid-plane cells by wall-normal distance
                        scalar d1 = GREAT, d2 = GREAT;
                        label c1 = -1, c2 = -1;
                        double fx = faceCentres[fi].x();

                        forAll(cells, ci_idx)
                        {
                            label ci = cells[ci_idx];
                            // Same x-column: within half a cell width
                            if (mag(C[ci].x() - fx) > 2e-3) continue;
                            scalar dist = C[ci].y();  // wall-normal = y for flat plate
                            if (dist < d1)
                            {
                                d2 = d1; c2 = c1;
                                d1 = dist; c1 = ci;
                            }
                            else if (dist < d2)
                            {
                                d2 = dist; c2 = ci;
                            }
                        }

                        wallFaces.append(fi);
                        if (c1 >= 0 && c2 >= 0 && d2 > d1 + SMALL)
                        {
                            // 2nd-order: linear extrapolation to y=0
                            scalar y1 = C[c1].y(), y2 = C[c2].y();
                            scalar p1 = p[c1],     p2 = p[c2];
                            scalar pWall = p1 + (p2 - p1) * (0.0 - y1) / (y2 - y1);
                            wallP.append(pWall);
                        }
                        else if (c1 >= 0)
                        {
                            wallP.append(p[c1]);  // 1st order fallback
                        }
                        else
                        {
                            wallP.append(0.0);
                        }
                    }

                    Info<< "writeMidPlane: wall extrapolation — "
                        << wallFaces.size() << " wall faces added" << endl;
                }
            }

            const fileName outDir =
                mesh.time().globalPath()/"postProcessing";
            mkDir(outDir);

            label totalRows = cells.size() + wallFaces.size();

            if (fmt == "binary")
            {
                const fileName fpath = outDir/"midPlane.bin";
                std::ofstream ofs(fpath, std::ios::binary);

                int32_t nCols = 7;
                int64_t nRows = totalRows;
                ofs.write(reinterpret_cast<const char*>(&nCols), sizeof(nCols));
                ofs.write(reinterpret_cast<const char*>(&nRows), sizeof(nRows));

                // Interior cells
                forAll(cells, i)
                {
                    const label ci = cells[i];
                    double row[7] =
                    {
                        C[ci].x(), C[ci].y(), C[ci].z(),
                        U[ci].x(), U[ci].y(), U[ci].z(),
                        p[ci]
                    };
                    ofs.write(reinterpret_cast<const char*>(row), sizeof(row));
                }

                // Wall points (u=v=w=0, p extrapolated)
                if (wallExtrap)
                {
                    label patchID = mesh.boundaryMesh().findPatchID("plate");
                    const vectorField fc(mesh.boundaryMesh()[patchID].faceCentres());
                    forAll(wallFaces, i)
                    {
                        label fi = wallFaces[i];
                        double row[7] =
                        {
                            fc[fi].x(), fc[fi].y(), fc[fi].z(),
                            0.0, 0.0, 0.0,
                            wallP[i]
                        };
                        ofs.write(reinterpret_cast<const char*>(row), sizeof(row));
                    }
                }

                Info<< "writeMidPlane: wrote " << totalRows
                    << " rows (binary) to " << fpath << endl;
            }
            else
            {
                OFstream os(outDir/"midPlane.csv");
                os.precision(10);
                os << "x,y,z,u,v,w,p" << nl;

                // Interior cells
                forAll(cells, i)
                {
                    const label ci = cells[i];
                    os  << C[ci].x() << ","
                        << C[ci].y() << ","
                        << C[ci].z() << ","
                        << U[ci].x() << ","
                        << U[ci].y() << ","
                        << U[ci].z() << ","
                        << p[ci] << nl;
                }

                // Wall points (u=v=w=0, p extrapolated)
                if (wallExtrap)
                {
                    label patchID = mesh.boundaryMesh().findPatchID("plate");
                    const vectorField fc(mesh.boundaryMesh()[patchID].faceCentres());
                    forAll(wallFaces, i)
                    {
                        label fi = wallFaces[i];
                        os  << fc[fi].x() << ","
                            << fc[fi].y() << ","
                            << fc[fi].z() << ","
                            << 0.0 << ","
                            << 0.0 << ","
                            << 0.0 << ","
                            << wallP[i] << nl;
                    }
                }

                Info<< "writeMidPlane: wrote " << totalRows
                    << " rows (csv) to " << os.name() << endl;
            }
        #};
    }
}


// ************************************************************************* //
