/*--------------------------------*- C++ -*----------------------------------*\
| =========                 |                                                 |
| \\      /  F ield         | OpenFOAM: The Open Source CFD Toolbox           |
|  \\    /   O peration     | Version:  2412                                  |
|   \\  /    A nd           | Website:  www.openfoam.com                      |
|    \\/     M anipulation  |                                                 |
\*---------------------------------------------------------------------------*/
FoamFile
{
    version     2.0;
    format      ascii;
    arch        "LSB;label=32;scalar=64";
    class       polyBoundaryMesh;
    location    "constant/polyMesh";
    object      boundary;
}
// * * * * * * * * * * * * * * * * * * * * * * * * * * * * * * * * * * * * * //

6
(
    upperWall
    {
        type            wall;
        inGroups        1(wall);
        nFaces          420;
        startFace       125340;
    }
    lowerWall
    {
        type            wall;
        inGroups        1(wall);
        nFaces          420;
        startFace       125760;
    }
    inlet
    {
        type            patch;
        nFaces          240;
        startFace       126180;
    }
    outlet
    {
        type            patch;
        nFaces          240;
        startFace       126420;
    }
    right
    {
        type            empty;
        inGroups        1(empty);
        nFaces          25200;
        startFace       126660;
    }
    left
    {
        type            empty;
        inGroups        1(empty);
        nFaces          25200;
        startFace       151860;
    }
)

// ************************************************************************* //
