/*--------------------------------*- C++ -*----------------------------------*\
| =========                 |                                                 |
| \\      /  F ield         | OpenFOAM: The Open Source CFD Toolbox           |
|  \\    /   O peration     | Version:  2312                                  |
|   \\  /    A nd           | Website:  www.openfoam.com                      |
|    \\/     M anipulation  |                                                 |
\*---------------------------------------------------------------------------*/
FoamFile
{
    version     2.0;
    format      ascii;
    arch        "LSB;label=32;scalar=64";
    class       featureEdgeMesh;
    location    "constant/triSurface";
    object      airfoil.eMesh;
}
// * * * * * * * * * * * * * * * * * * * * * * * * * * * * * * * * * * * * * //


// points:

256
(
(0.449383 0.0235512 -0.00999999)
(0.449383 0.0235512 0.00999999)
(0.448197 0.0236638 -0.00999999)
(0.446077 0.0238646 -0.00999999)
(0.446077 0.0238646 0.00999999)
(0.448197 0.0236638 0.00999999)
(0.442916 0.024164 -0.00999999)
(0.442916 0.024164 0.00999999)
(0.438714 0.0245638 -0.00999999)
(0.438714 0.0245638 0.00999999)
(0.433479 0.02506 -0.00999999)
(0.433479 0.02506 0.00999999)
(0.42722 0.0256539 -0.00999999)
(0.42722 0.0256539 0.00999999)
(0.419951 0.0264401 -0.00999999)
(0.419951 0.0264401 0.00999999)
(0.411686 0.0274795 -0.00999999)
(0.411686 0.0274795 0.00999999)
(0.402427 0.028913 -0.00999999)
(0.402427 0.028913 0.00999999)
(0.392211 0.0307254 -0.00999999)
(0.392211 0.0307254 0.00999999)
(0.381055 0.0329417 -0.00999999)
(0.381055 0.0329417 0.00999999)
(0.368987 0.0355321 -0.00999999)
(0.368987 0.0355321 0.00999999)
(0.356037 0.0384358 -0.00999999)
(0.356037 0.0384358 0.00999999)
(0.342236 0.0415969 -0.00999999)
(0.342236 0.0415969 0.00999999)
(0.327611 0.0449995 -0.00999999)
(0.327611 0.0449995 0.00999999)
(0.312217 0.0486331 -0.00999999)
(0.312217 0.0486331 0.00999999)
(0.296064 0.0524604 -0.00999999)
(0.296064 0.0524604 0.00999999)
(0.279211 0.0564177 -0.00999999)
(0.279211 0.0564177 0.00999999)
(0.261697 0.0604269 -0.00999999)
(0.261697 0.0604269 0.00999999)
(0.243573 0.0643933 -0.00999999)
(0.243573 0.0643933 0.00999999)
(0.224869 0.0682337 -0.00999999)
(0.224869 0.0682337 0.00999999)
(0.205643 0.0718883 -0.00999999)
(0.205643 0.0718883 0.00999999)
(0.185949 0.0752019 -0.00999999)
(0.185949 0.0752019 0.00999999)
(0.165832 0.078159 -0.00999999)
(0.165832 0.078159 0.00999999)
(0.145336 0.0805961 -0.00999999)
(0.145336 0.0805961 0.00999999)
(0.124529 0.0824508 -0.00999999)
(0.124529 0.0824508 0.00999999)
(0.103467 0.0834677 -0.00999999)
(0.103467 0.0834677 0.00999999)
(0.0821806 0.083804 -0.00999999)
(0.0821806 0.083804 0.00999999)
(0.0607239 0.0835996 -0.00999999)
(0.0607239 0.0835996 0.00999999)
(0.039144 0.082995 -0.00999999)
(0.039144 0.082995 0.00999999)
(0.0174741 0.082045 -0.00999999)
(0.0174741 0.082045 0.00999999)
(-0.00423219 0.0807551 -0.00999999)
(-0.00423219 0.0807551 0.00999999)
(-0.0259241 0.079192 -0.00999999)
(-0.0259241 0.079192 0.00999999)
(-0.0475475 0.0773522 -0.00999999)
(-0.0475475 0.0773522 0.00999999)
(-0.0690509 0.0752879 -0.00999999)
(-0.0690509 0.0752879 0.00999999)
(-0.0903974 0.0729805 -0.00999999)
(-0.0903974 0.0729805 0.00999999)
(-0.111536 0.0704839 -0.00999999)
(-0.111536 0.0704839 0.00999999)
(-0.132402 0.0677906 -0.00999999)
(-0.132402 0.0677906 0.00999999)
(-0.152963 0.0649403 -0.00999999)
(-0.152963 0.0649403 0.00999999)
(-0.173174 0.0619408 -0.00999999)
(-0.173174 0.0619408 0.00999999)
(-0.192972 0.0588033 -0.00999999)
(-0.192972 0.0588033 0.00999999)
(-0.212323 0.0555595 -0.00999999)
(-0.212323 0.0555595 0.00999999)
(-0.23118 0.0521938 -0.00999999)
(-0.23118 0.0521938 0.00999999)
(-0.249502 0.0487408 -0.00999999)
(-0.249502 0.0487408 0.00999999)
(-0.267234 0.0452204 -0.00999999)
(-0.267234 0.0452204 0.00999999)
(-0.28435 0.0416368 -0.00999999)
(-0.28435 0.0416368 0.00999999)
(-0.300804 0.0379807 -0.00999999)
(-0.300804 0.0379807 0.00999999)
(-0.316562 0.0342862 -0.00999999)
(-0.316562 0.0342862 0.00999999)
(-0.331571 0.0305634 -0.00999999)
(-0.331571 0.0305634 0.00999999)
(-0.345822 0.0268253 -0.00999999)
(-0.345822 0.0268253 0.00999999)
(-0.359262 0.023091 -0.00999999)
(-0.359262 0.023091 0.00999999)
(-0.371867 0.0193834 -0.00999999)
(-0.371867 0.0193834 0.00999999)
(-0.383609 0.0157218 -0.00999999)
(-0.383609 0.0157218 0.00999999)
(-0.39446 0.0121177 -0.00999999)
(-0.39446 0.0121177 0.00999999)
(-0.404395 0.00857706 -0.00999999)
(-0.404395 0.00857706 0.00999999)
(-0.41339 0.00510992 -0.00999999)
(-0.41339 0.00510992 0.00999999)
(-0.421426 0.00173906 -0.00999999)
(-0.421426 0.00173906 0.00999999)
(-0.42848 -0.00157047 -0.00999999)
(-0.42848 -0.00157047 0.00999999)
(-0.434538 -0.00480706 -0.00999999)
(-0.434538 -0.00480706 0.00999999)
(-0.439577 -0.00811189 -0.00999999)
(-0.439577 -0.00811189 0.00999999)
(-0.443581 -0.0115248 -0.00999999)
(-0.443581 -0.0115248 0.00999999)
(-0.446545 -0.0150164 -0.00999999)
(-0.446545 -0.0150164 0.00999999)
(-0.448463 -0.0185245 -0.00999999)
(-0.448463 -0.0185245 0.00999999)
(-0.449383 -0.0235512 -0.00999999)
(-0.449383 -0.0235512 0.00999999)
(-0.447943 -0.0284541 -0.00999999)
(-0.447943 -0.0284541 0.00999999)
(-0.445668 -0.0317425 -0.00999999)
(-0.445668 -0.0317425 0.00999999)
(-0.442356 -0.0349053 -0.00999999)
(-0.442356 -0.0349053 0.00999999)
(-0.438017 -0.0378808 -0.00999999)
(-0.438017 -0.0378808 0.00999999)
(-0.43266 -0.0406409 -0.00999999)
(-0.43266 -0.0406409 0.00999999)
(-0.426297 -0.0432265 -0.00999999)
(-0.426297 -0.0432265 0.00999999)
(-0.418935 -0.0457805 -0.00999999)
(-0.418935 -0.0457805 0.00999999)
(-0.410592 -0.048293 -0.00999999)
(-0.410592 -0.048293 0.00999999)
(-0.401283 -0.0508008 -0.00999999)
(-0.401283 -0.0508008 0.00999999)
(-0.391033 -0.0532837 -0.00999999)
(-0.391033 -0.0532837 0.00999999)
(-0.379864 -0.0557337 -0.00999999)
(-0.379864 -0.0557337 0.00999999)
(-0.367804 -0.0581478 -0.00999999)
(-0.367804 -0.0581478 0.00999999)
(-0.35488 -0.0605176 -0.00999999)
(-0.35488 -0.0605176 0.00999999)
(-0.341123 -0.0628266 -0.00999999)
(-0.341123 -0.0628266 0.00999999)
(-0.32656 -0.0650546 -0.00999999)
(-0.32656 -0.0650546 0.00999999)
(-0.311244 -0.0671881 -0.00999999)
(-0.311244 -0.0671881 0.00999999)
(-0.295186 -0.0692152 -0.00999999)
(-0.295186 -0.0692152 0.00999999)
(-0.27844 -0.0711314 -0.00999999)
(-0.27844 -0.0711314 0.00999999)
(-0.261043 -0.0729063 -0.00999999)
(-0.261043 -0.0729063 0.00999999)
(-0.24304 -0.0745538 -0.00999999)
(-0.24304 -0.0745538 0.00999999)
(-0.224458 -0.0760728 -0.00999999)
(-0.224458 -0.0760728 0.00999999)
(-0.205352 -0.0774489 -0.00999999)
(-0.205352 -0.0774489 0.00999999)
(-0.185768 -0.0786522 -0.00999999)
(-0.185768 -0.0786522 0.00999999)
(-0.165751 -0.0797031 -0.00999999)
(-0.165751 -0.0797031 0.00999999)
(-0.145337 -0.0805736 -0.00999999)
(-0.145337 -0.0805736 0.00999999)
(-0.124591 -0.0812591 -0.00999999)
(-0.124591 -0.0812591 0.00999999)
(-0.103557 -0.0817564 -0.00999999)
(-0.103557 -0.0817564 0.00999999)
(-0.0822737 -0.0820298 -0.00999999)
(-0.0822737 -0.0820298 0.00999999)
(-0.0608029 -0.0820933 -0.00999999)
(-0.0608029 -0.0820933 0.00999999)
(-0.0392015 -0.0818985 -0.00999999)
(-0.0392015 -0.0818985 0.00999999)
(-0.0175043 -0.081468 -0.00999999)
(-0.0175043 -0.081468 0.00999999)
(0.00423219 -0.0807551 -0.00999999)
(0.00423219 -0.0807551 0.00999999)
(0.0259544 -0.079769 -0.00999999)
(0.0259544 -0.079769 0.00999999)
(0.0476049 -0.0784487 -0.00999999)
(0.0476049 -0.0784487 0.00999999)
(0.0691298 -0.0767943 -0.00999999)
(0.0691298 -0.0767943 0.00999999)
(0.0904904 -0.0747547 -0.00999999)
(0.0904904 -0.0747547 0.00999999)
(0.111625 -0.0721951 -0.00999999)
(0.111625 -0.0721951 0.00999999)
(0.132465 -0.0689824 -0.00999999)
(0.132465 -0.0689824 0.00999999)
(0.152965 -0.0649628 -0.00999999)
(0.152965 -0.0649628 0.00999999)
(0.173093 -0.0603967 -0.00999999)
(0.173093 -0.0603967 0.00999999)
(0.192791 -0.055353 -0.00999999)
(0.192791 -0.055353 0.00999999)
(0.212031 -0.0499989 -0.00999999)
(0.212031 -0.0499989 0.00999999)
(0.23077 -0.0443547 -0.00999999)
(0.23077 -0.0443547 0.00999999)
(0.248969 -0.0385802 -0.00999999)
(0.248969 -0.0385802 0.00999999)
(0.26658 -0.0327411 -0.00999999)
(0.26658 -0.0327411 0.00999999)
(0.283579 -0.0269231 -0.00999999)
(0.283579 -0.0269231 0.00999999)
(0.299926 -0.0212259 -0.00999999)
(0.299926 -0.0212259 0.00999999)
(0.31559 -0.0157312 -0.00999999)
(0.31559 -0.0157312 0.00999999)
(0.33052 -0.0105083 -0.00999999)
(0.33052 -0.0105083 0.00999999)
(0.344709 -0.00559558 -0.00999999)
(0.344709 -0.00559558 0.00999999)
(0.358105 -0.00100924 -0.00999999)
(0.358105 -0.00100924 0.00999999)
(0.37068 0.00323222 -0.00999999)
(0.37068 0.00323222 0.00999999)
(0.382411 0.00706984 -0.00999999)
(0.382411 0.00706984 0.00999999)
(0.393275 0.0104402 -0.00999999)
(0.393275 0.0104402 0.00999999)
(0.403245 0.0133105 -0.00999999)
(0.403245 0.0133105 0.00999999)
(0.412303 0.0157039 -0.00999999)
(0.412303 0.0157039 0.00999999)
(0.420414 0.0176016 -0.00999999)
(0.420414 0.0176016 0.00999999)
(0.427561 0.0191433 -0.00999999)
(0.427561 0.0191433 0.00999999)
(0.433723 0.0203882 -0.00999999)
(0.433723 0.0203882 0.00999999)
(0.438878 0.0214289 -0.00999999)
(0.438878 0.0214289 0.00999999)
(0.443016 0.0222658 -0.00999999)
(0.443016 0.0222658 0.00999999)
(0.446128 0.0228939 -0.00999999)
(0.446128 0.0228939 0.00999999)
(0.448215 0.0233151 -0.00999999)
(0.448215 0.0233151 0.00999999)
)


// edges:

257
(
(2 3)
(4 5)
(3 6)
(7 4)
(6 8)
(9 7)
(8 10)
(11 9)
(10 12)
(13 11)
(12 14)
(15 13)
(14 16)
(17 15)
(16 18)
(19 17)
(18 20)
(21 19)
(20 22)
(23 21)
(22 24)
(25 23)
(24 26)
(27 25)
(26 28)
(29 27)
(28 30)
(31 29)
(30 32)
(33 31)
(32 34)
(35 33)
(34 36)
(37 35)
(36 38)
(39 37)
(38 40)
(41 39)
(40 42)
(43 41)
(42 44)
(45 43)
(44 46)
(47 45)
(46 48)
(49 47)
(48 50)
(51 49)
(50 52)
(53 51)
(52 54)
(55 53)
(54 56)
(57 55)
(56 58)
(59 57)
(58 60)
(61 59)
(60 62)
(63 61)
(62 64)
(65 63)
(64 66)
(67 65)
(66 68)
(69 67)
(68 70)
(71 69)
(70 72)
(73 71)
(72 74)
(75 73)
(74 76)
(77 75)
(76 78)
(79 77)
(78 80)
(81 79)
(80 82)
(83 81)
(82 84)
(85 83)
(84 86)
(87 85)
(86 88)
(89 87)
(88 90)
(91 89)
(90 92)
(93 91)
(92 94)
(95 93)
(94 96)
(97 95)
(96 98)
(99 97)
(98 100)
(101 99)
(100 102)
(103 101)
(102 104)
(105 103)
(104 106)
(107 105)
(106 108)
(109 107)
(108 110)
(111 109)
(110 112)
(113 111)
(112 114)
(115 113)
(114 116)
(117 115)
(116 118)
(119 117)
(118 120)
(121 119)
(120 122)
(123 121)
(122 124)
(125 123)
(124 126)
(127 125)
(126 128)
(129 127)
(128 130)
(131 129)
(130 132)
(133 131)
(132 134)
(135 133)
(134 136)
(137 135)
(136 138)
(139 137)
(138 140)
(141 139)
(140 142)
(143 141)
(142 144)
(145 143)
(144 146)
(147 145)
(146 148)
(149 147)
(148 150)
(151 149)
(150 152)
(153 151)
(152 154)
(155 153)
(154 156)
(157 155)
(156 158)
(159 157)
(158 160)
(161 159)
(160 162)
(163 161)
(162 164)
(165 163)
(164 166)
(167 165)
(166 168)
(169 167)
(168 170)
(171 169)
(170 172)
(173 171)
(172 174)
(175 173)
(174 176)
(177 175)
(176 178)
(179 177)
(178 180)
(181 179)
(180 182)
(183 181)
(182 184)
(185 183)
(184 186)
(187 185)
(186 188)
(189 187)
(188 190)
(191 189)
(190 192)
(193 191)
(192 194)
(195 193)
(194 196)
(197 195)
(196 198)
(199 197)
(198 200)
(201 199)
(200 202)
(203 201)
(202 204)
(205 203)
(204 206)
(207 205)
(206 208)
(209 207)
(208 210)
(211 209)
(210 212)
(213 211)
(212 214)
(215 213)
(214 216)
(217 215)
(216 218)
(219 217)
(218 220)
(221 219)
(220 222)
(223 221)
(222 224)
(225 223)
(224 226)
(227 225)
(226 228)
(229 227)
(228 230)
(231 229)
(230 232)
(233 231)
(232 234)
(235 233)
(234 236)
(237 235)
(236 238)
(239 237)
(238 240)
(241 239)
(240 242)
(243 241)
(242 244)
(245 243)
(244 246)
(247 245)
(246 248)
(249 247)
(248 250)
(251 249)
(250 252)
(253 251)
(252 254)
(255 253)
(254 0)
(0 1)
(1 255)
(0 2)
(5 1)
)

// * * * * * * * * * * * * * * * * * * * * * * * * * * * * * * * * * * * * * //


// ************************************************************************* //
