/*--------------------------------*- C++ -*----------------------------------*\
| =========                 |                                                 |
| \\      /  F ield         | OpenFOAM: The Open Source CFD Toolbox           |
|  \\    /   O peration     | Version:  v2412                                 |
|   \\  /    A nd           | Website:  www.openfoam.com                      |
|    \\/     M anipulation  |                                                 |
\*---------------------------------------------------------------------------*/
FoamFile
{
    version     2.0;
    format      ascii;
    class       dictionary;
    object      sampleDict;
}
// * * * * * * * * * * * * * * * * * * * * * * * * * * * * * * * * * * * * * //

type            sets;
libs            (sampling);

interpolationScheme cellPoint;
setFormat       raw;

fields          (U p);

sets
{
    suctionOutletProbes
    {
        type    cloud;
        axis    xyz;
        points
        (
            (-0.004254269826 0.08109087823 0.005)
            (-0.004299529476 0.08177934287 0.005)
            (-0.004347061576 0.08250237475 0.005)
            (-0.004396980224 0.08326170945 0.005)
            (-0.004449405245 0.08405916972 0.005)
            (-0.004504462482 0.08489666981 0.005)
            (-0.004562284099 0.08577622008 0.005)
            (-0.004623008889 0.08669993182 0.005)
            (-0.004686782622 0.08767002238 0.005)
            (-0.00475375838 0.08868882038 0.005)
            (-0.004824096936 0.08975877137 0.005)
            (-0.004897967131 0.0908824437 0.005)
            (-0.004975546288 0.0920625347 0.005)
            (-0.005057020629 0.09330187708 0.005)
            (-0.00514258573 0.09460344581 0.005)
            (-0.005232446982 0.09597036522 0.005)
            (-0.005326820095 0.09740591651 0.005)
            (-0.005425931602 0.09891354565 0.005)
            (-0.005530019415 0.1004968716 0.005)
            (-0.005639333391 0.102159695 0.005)
            (-0.00575413593 0.1039060074 0.005)
            (-0.005874702611 0.1057400007 0.005)
            (-0.006001322843 0.1076660773 0.005)
            (-0.006134300572 0.1096888605 0.005)
            (-0.006273955002 0.1118132061 0.005)
            (-0.006420621365 0.1140442132 0.005)
            (-0.006574651723 0.1163872373 0.005)
            (-0.006736415818 0.1188479028 0.005)
            (-0.006906301953 0.1214321163 0.005)
            (-0.00708471793 0.1241460809 0.005)
            (-0.007272092025 0.1269963115 0.005)
            (-0.007468874017 0.1299896497 0.005)
            (-0.00767553627 0.133133281 0.005)
            (-0.007892574861 0.1364347513 0.005)
            (-0.008120510781 0.1399019857 0.005)
            (-0.008359891172 0.1435433072 0.005)
            (-0.008611290654 0.1473674564 0.005)
            (-0.008875312695 0.1513836128 0.005)
            (-0.009152591062 0.1556014171 0.005)
            (-0.009443791346 0.1600309939 0.005)
            (-0.009749612555 0.1646829761 0.005)
            (-0.01007078879 0.1695685304 0.005)
            (-0.01040809102 0.1746993843 0.005)
            (-0.01076232891 0.1800878542 0.005)
            (-0.01113435279 0.1857468746 0.005)
            (-0.01152505568 0.1916900297 0.005)
            (-0.01193537544 0.1979315857 0.005)
            (-0.01236629701 0.204486525 0.005)
            (-0.0128188548 0.2113705824 0.005)
            (-0.01329413513 0.2186002826 0.005)
            (-0.0137932789 0.2261929801 0.005)
            (-0.01431748426 0.2341669004 0.005)
            (-0.01486800953 0.2425411847 0.005)
            (-0.01544617622 0.251335935 0.005)
            (-0.01605337218 0.2605722622 0.005)
            (-0.01669105494 0.2702723378 0.005)
            (-0.01736075522 0.2804594461 0.005)
            (-0.0180640806 0.2911580407 0.005)
            (-0.01880271936 0.3023938027 0.005)
            (-0.01957844456 0.314193703 0.005)
            (-0.004254269826 0.08109087823 0.005)
            (-0.004299529476 0.08177934287 0.005)
            (-0.004347061576 0.08250237475 0.005)
            (-0.004396980224 0.08326170945 0.005)
            (-0.004449405245 0.08405916972 0.005)
            (-0.004504462482 0.08489666981 0.005)
            (-0.004562284099 0.08577622008 0.005)
            (-0.004623008889 0.08669993182 0.005)
            (-0.004686782622 0.08767002238 0.005)
            (-0.00475375838 0.08868882038 0.005)
            (-0.004824096936 0.08975877137 0.005)
            (-0.004897967131 0.0908824437 0.005)
            (-0.004975546288 0.0920625347 0.005)
            (-0.005057020629 0.09330187708 0.005)
            (-0.00514258573 0.09460344581 0.005)
            (-0.005232446982 0.09597036522 0.005)
            (-0.005326820095 0.09740591651 0.005)
            (-0.005425931602 0.09891354565 0.005)
            (-0.005530019415 0.1004968716 0.005)
            (-0.005639333391 0.102159695 0.005)
            (-0.00575413593 0.1039060074 0.005)
            (-0.005874702611 0.1057400007 0.005)
            (-0.006001322843 0.1076660773 0.005)
            (-0.006134300572 0.1096888605 0.005)
            (-0.006273955002 0.1118132061 0.005)
            (-0.006420621365 0.1140442132 0.005)
            (-0.006574651723 0.1163872373 0.005)
            (-0.006736415818 0.1188479028 0.005)
            (-0.006906301953 0.1214321163 0.005)
            (-0.00708471793 0.1241460809 0.005)
            (-0.007272092025 0.1269963115 0.005)
            (-0.007468874017 0.1299896497 0.005)
            (-0.00767553627 0.133133281 0.005)
            (-0.007892574861 0.1364347513 0.005)
            (-0.008120510781 0.1399019857 0.005)
            (-0.008359891172 0.1435433072 0.005)
            (-0.008611290654 0.1473674564 0.005)
            (-0.008875312695 0.1513836128 0.005)
            (-0.009152591062 0.1556014171 0.005)
            (-0.009443791346 0.1600309939 0.005)
            (-0.009749612555 0.1646829761 0.005)
            (-0.01007078879 0.1695685304 0.005)
            (-0.01040809102 0.1746993843 0.005)
            (-0.01076232891 0.1800878542 0.005)
            (-0.01113435279 0.1857468746 0.005)
            (-0.01152505568 0.1916900297 0.005)
            (-0.01193537544 0.1979315857 0.005)
            (-0.01236629701 0.204486525 0.005)
            (-0.0128188548 0.2113705824 0.005)
            (-0.01329413513 0.2186002826 0.005)
            (-0.0137932789 0.2261929801 0.005)
            (-0.01431748426 0.2341669004 0.005)
            (-0.01486800953 0.2425411847 0.005)
            (-0.01544617622 0.251335935 0.005)
            (-0.01605337218 0.2605722622 0.005)
            (-0.01669105494 0.2702723378 0.005)
            (-0.01736075522 0.2804594461 0.005)
            (-0.0180640806 0.2911580407 0.005)
            (-0.01880271936 0.3023938027 0.005)
            (-0.01957844456 0.314193703 0.005)
            (-0.02036939611 0.3262252183 0.005)
            (-0.02115657669 0.3381993716 0.005)
            (-0.02194375727 0.3501735249 0.005)
            (-0.02273093785 0.3621476781 0.005)
            (-0.02351811843 0.3741218314 0.005)
            (-0.02430529902 0.3860959847 0.005)
            (-0.0250924796 0.398070138 0.005)
            (-0.02587966018 0.4100442913 0.005)
            (-0.02666684076 0.4220184445 0.005)
            (-0.02745402134 0.4339925978 0.005)
            (-0.02824120192 0.445966751 0.005)
            (-0.0290283825 0.4579409044 0.005)
            (-0.02981556308 0.4699150577 0.005)
            (-0.03060274366 0.4818892109 0.005)
            (-0.03138992424 0.4938633642 0.005)
            (-0.03217710483 0.5058375175 0.005)
            (-0.03296428541 0.5178116708 0.005)
            (-0.03375146599 0.529785824 0.005)
            (-0.03453864657 0.5417599774 0.005)
            (-0.03532582715 0.5537341306 0.005)
            (-0.02036939611 0.3262252183 0.005)
            (-0.02115657669 0.3381993716 0.005)
            (-0.02194375727 0.3501735249 0.005)
            (-0.02273093785 0.3621476781 0.005)
            (-0.02351811843 0.3741218314 0.005)
            (-0.02430529902 0.3860959847 0.005)
            (-0.0250924796 0.398070138 0.005)
            (-0.02587966018 0.4100442913 0.005)
            (-0.02666684076 0.4220184445 0.005)
            (-0.02745402134 0.4339925978 0.005)
            (-0.02824120192 0.445966751 0.005)
            (-0.0290283825 0.4579409044 0.005)
            (-0.02981556308 0.4699150577 0.005)
            (-0.03060274366 0.4818892109 0.005)
            (-0.03138992424 0.4938633642 0.005)
            (-0.03217710483 0.5058375175 0.005)
            (-0.03296428541 0.5178116708 0.005)
            (-0.03375146599 0.529785824 0.005)
            (-0.03453864657 0.5417599774 0.005)
            (-0.03532582715 0.5537341306 0.005)
        );
    }
    pressureOutletProbes
    {
        type    cloud;
        axis    xyz;
        points
        (
            (-0.3574068456 -0.06039643734 0.005)
            (-0.3575312867 -0.06107507304 0.005)
            (-0.3576619759 -0.06178778247 0.005)
            (-0.3577992268 -0.06253627645 0.005)
            (-0.357943369 -0.0633223517 0.005)
            (-0.3580947484 -0.06414789512 0.005)
            (-0.3582537285 -0.0650148884 0.005)
            (-0.3584206909 -0.06592541268 0.005)
            (-0.3585960363 -0.06688165363 0.005)
            (-0.3587801856 -0.06788590665 0.005)
            (-0.358973581 -0.06894058237 0.005)
            (-0.3591766866 -0.07004821248 0.005)
            (-0.3593899898 -0.07121145578 0.005)
            (-0.359614003 -0.07243310456 0.005)
            (-0.3598492636 -0.0737160913 0.005)
            (-0.3600963364 -0.07506349575 0.005)
            (-0.3603558146 -0.07647855224 0.005)
            (-0.360628321 -0.07796465755 0.005)
            (-0.3609145096 -0.07952537897 0.005)
            (-0.3612150676 -0.08116446291 0.005)
            (-0.3615307164 -0.08288584389 0.005)
            (-0.3618622136 -0.08469365398 0.005)
            (-0.3622103549 -0.08659223271 0.005)
            (-0.3625759763 -0.0885861375 0.005)
            (-0.3629599551 -0.09068015459 0.005)
            (-0.3633632131 -0.09287931053 0.005)
            (-0.3637867184 -0.09518888426 0.005)
            (-0.3642314877 -0.09761441978 0.005)
            (-0.3646985884 -0.1001617394 0.005)
            (-0.3651891418 -0.1028369578 0.005)
            (-0.3657043254 -0.1056464967 0.005)
            (-0.366245376 -0.1085971003 0.005)
            (-0.3668135924 -0.1116958512 0.005)
            (-0.3674103384 -0.1149501878 0.005)
            (-0.3680370466 -0.1183679219 0.005)
            (-0.3686952211 -0.1219572576 0.005)
            (-0.3693864421 -0.1257268108 0.005)
            (-0.3701123688 -0.1296856302 0.005)
            (-0.3708747436 -0.1338432186 0.005)
            (-0.3716753966 -0.1382095561 0.005)
            (-0.3725162498 -0.1427951237 0.005)
            (-0.3733993215 -0.1476109289 0.005)
            (-0.3743267315 -0.1526685316 0.005)
            (-0.3753007059 -0.1579800724 0.005)
            (-0.3763235829 -0.1635583012 0.005)
            (-0.3773978176 -0.1694166082 0.005)
            (-0.3785259887 -0.1755690561 0.005)
            (-0.3797108044 -0.1820304131 0.005)
            (-0.3809551087 -0.1888161895 0.005)
            (-0.3822618884 -0.1959426741 0.005)
            (-0.3836342805 -0.2034269736 0.005)
            (-0.3850755794 -0.2112870534 0.005)
            (-0.3865892445 -0.2195417814 0.005)
            (-0.3881789096 -0.2282109724 0.005)
            (-0.3898483904 -0.2373154363 0.005)
            (-0.3916016944 -0.2468770277 0.005)
            (-0.3934430303 -0.2569186986 0.005)
            (-0.3953768183 -0.2674645536 0.005)
            (-0.3974077002 -0.2785399071 0.005)
            (-0.3995405509 -0.2901713449 0.005)
            (-0.3574068456 -0.06039643734 0.005)
            (-0.3575312867 -0.06107507304 0.005)
            (-0.3576619759 -0.06178778247 0.005)
            (-0.3577992268 -0.06253627645 0.005)
            (-0.357943369 -0.0633223517 0.005)
            (-0.3580947484 -0.06414789512 0.005)
            (-0.3582537285 -0.0650148884 0.005)
            (-0.3584206909 -0.06592541268 0.005)
            (-0.3585960363 -0.06688165363 0.005)
            (-0.3587801856 -0.06788590665 0.005)
            (-0.358973581 -0.06894058237 0.005)
            (-0.3591766866 -0.07004821248 0.005)
            (-0.3593899898 -0.07121145578 0.005)
            (-0.359614003 -0.07243310456 0.005)
            (-0.3598492636 -0.0737160913 0.005)
            (-0.3600963364 -0.07506349575 0.005)
            (-0.3603558146 -0.07647855224 0.005)
            (-0.360628321 -0.07796465755 0.005)
            (-0.3609145096 -0.07952537897 0.005)
            (-0.3612150676 -0.08116446291 0.005)
            (-0.3615307164 -0.08288584389 0.005)
            (-0.3618622136 -0.08469365398 0.005)
            (-0.3622103549 -0.08659223271 0.005)
            (-0.3625759763 -0.0885861375 0.005)
            (-0.3629599551 -0.09068015459 0.005)
            (-0.3633632131 -0.09287931053 0.005)
            (-0.3637867184 -0.09518888426 0.005)
            (-0.3642314877 -0.09761441978 0.005)
            (-0.3646985884 -0.1001617394 0.005)
            (-0.3651891418 -0.1028369578 0.005)
            (-0.3657043254 -0.1056464967 0.005)
            (-0.366245376 -0.1085971003 0.005)
            (-0.3668135924 -0.1116958512 0.005)
            (-0.3674103384 -0.1149501878 0.005)
            (-0.3680370466 -0.1183679219 0.005)
            (-0.3686952211 -0.1219572576 0.005)
            (-0.3693864421 -0.1257268108 0.005)
            (-0.3701123688 -0.1296856302 0.005)
            (-0.3708747436 -0.1338432186 0.005)
            (-0.3716753966 -0.1382095561 0.005)
            (-0.3725162498 -0.1427951237 0.005)
            (-0.3733993215 -0.1476109289 0.005)
            (-0.3743267315 -0.1526685316 0.005)
            (-0.3753007059 -0.1579800724 0.005)
            (-0.3763235829 -0.1635583012 0.005)
            (-0.3773978176 -0.1694166082 0.005)
            (-0.3785259887 -0.1755690561 0.005)
            (-0.3797108044 -0.1820304131 0.005)
            (-0.3809551087 -0.1888161895 0.005)
            (-0.3822618884 -0.1959426741 0.005)
            (-0.3836342805 -0.2034269736 0.005)
            (-0.3850755794 -0.2112870534 0.005)
            (-0.3865892445 -0.2195417814 0.005)
            (-0.3881789096 -0.2282109724 0.005)
            (-0.3898483904 -0.2373154363 0.005)
            (-0.3916016944 -0.2468770277 0.005)
            (-0.3934430303 -0.2569186986 0.005)
            (-0.3953768183 -0.2674645536 0.005)
            (-0.3974077002 -0.2785399071 0.005)
            (-0.3995405509 -0.2901713449 0.005)
            (-0.4017152663 -0.3020310909 0.005)
            (-0.4038796135 -0.3138342939 0.005)
            (-0.4060439607 -0.325637497 0.005)
            (-0.4082083079 -0.3374407 0.005)
            (-0.4103726551 -0.349243903 0.005)
            (-0.4125370023 -0.361047106 0.005)
            (-0.4147013495 -0.372850309 0.005)
            (-0.4168656967 -0.384653512 0.005)
            (-0.4190300439 -0.396456715 0.005)
            (-0.4211943911 -0.408259918 0.005)
            (-0.4233587382 -0.420063121 0.005)
            (-0.4255230854 -0.431866324 0.005)
            (-0.4276874326 -0.443669527 0.005)
            (-0.4298517798 -0.45547273 0.005)
            (-0.432016127 -0.467275933 0.005)
            (-0.4341804742 -0.479079136 0.005)
            (-0.4363448214 -0.4908823391 0.005)
            (-0.4385091686 -0.5026855421 0.005)
            (-0.4406735158 -0.5144887451 0.005)
            (-0.442837863 -0.5262919481 0.005)
            (-0.4017152663 -0.3020310909 0.005)
            (-0.4038796135 -0.3138342939 0.005)
            (-0.4060439607 -0.325637497 0.005)
            (-0.4082083079 -0.3374407 0.005)
            (-0.4103726551 -0.349243903 0.005)
            (-0.4125370023 -0.361047106 0.005)
            (-0.4147013495 -0.372850309 0.005)
            (-0.4168656967 -0.384653512 0.005)
            (-0.4190300439 -0.396456715 0.005)
            (-0.4211943911 -0.408259918 0.005)
            (-0.4233587382 -0.420063121 0.005)
            (-0.4255230854 -0.431866324 0.005)
            (-0.4276874326 -0.443669527 0.005)
            (-0.4298517798 -0.45547273 0.005)
            (-0.432016127 -0.467275933 0.005)
            (-0.4341804742 -0.479079136 0.005)
            (-0.4363448214 -0.4908823391 0.005)
            (-0.4385091686 -0.5026855421 0.005)
            (-0.4406735158 -0.5144887451 0.005)
            (-0.442837863 -0.5262919481 0.005)
        );
    }
    farfieldProbes
    {
        type    cloud;
        axis    xyz;
        points
        (
            (-0.03670035021 0.5596509087 0.005)
            (-0.03670035021 0.5596509087 0.005)
            (-0.03866318642 0.5595109319 0.005)
            (-0.03866318642 0.5595109319 0.005)
            (-0.04062770354 0.5593720294 0.005)
            (-0.04062770354 0.5593720294 0.005)
            (-0.0425933806 0.5592338681 0.005)
            (-0.0425933806 0.5592338681 0.005)
            (-0.04455969665 0.5590961152 0.005)
            (-0.04455969665 0.5590961152 0.005)
            (-0.0465261307 0.5589584377 0.005)
            (-0.0465261307 0.5589584377 0.005)
            (-0.04849216179 0.5588205027 0.005)
            (-0.04849216179 0.5588205027 0.005)
            (-0.05045726897 0.5586819773 0.005)
            (-0.05045726897 0.5586819773 0.005)
            (-0.05242093128 0.5585425285 0.005)
            (-0.05242093128 0.5585425285 0.005)
            (-0.05438262774 0.5584018233 0.005)
            (-0.05438262774 0.5584018233 0.005)
            (-0.05634183741 0.5582595289 0.005)
            (-0.05634183741 0.5582595289 0.005)
            (-0.05829803929 0.5581153124 0.005)
            (-0.05829803929 0.5581153124 0.005)
            (-0.06025071246 0.5579688407 0.005)
            (-0.06025071246 0.5579688407 0.005)
            (-0.06219933593 0.557819781 0.005)
            (-0.06219933593 0.557819781 0.005)
            (-0.0641573365 0.5576669622 0.005)
            (-0.0641573365 0.5576669622 0.005)
            (-0.06612827518 0.5575106013 0.005)
            (-0.06612827518 0.5575106013 0.005)
            (-0.06809913032 0.5573521911 0.005)
            (-0.06809913032 0.5573521911 0.005)
            (-0.07006708293 0.557192029 0.005)
            (-0.07006708293 0.557192029 0.005)
            (-0.07203228571 0.5570301684 0.005)
            (-0.07203228571 0.5570301684 0.005)
            (-0.0739948913 0.5568666625 0.005)
            (-0.0739948913 0.5568666625 0.005)
            (-0.0759550524 0.5567015645 0.005)
            (-0.0759550524 0.5567015645 0.005)
            (-0.07791292166 0.5565349278 0.005)
            (-0.07791292166 0.5565349278 0.005)
            (-0.07986865177 0.5563668055 0.005)
            (-0.07986865177 0.5563668055 0.005)
            (-0.08182239538 0.556197251 0.005)
            (-0.08182239538 0.556197251 0.005)
            (-0.08377430519 0.5560263174 0.005)
            (-0.08377430519 0.5560263174 0.005)
            (-0.08572453385 0.555854058 0.005)
            (-0.08572453385 0.555854058 0.005)
            (-0.08767323405 0.5556805261 0.005)
            (-0.08767323405 0.5556805261 0.005)
            (-0.08962055844 0.5555057749 0.005)
            (-0.08962055844 0.5555057749 0.005)
            (-0.09159282962 0.5553271479 0.005)
            (-0.09159282962 0.5553271479 0.005)
            (-0.09362627437 0.5551406321 0.005)
            (-0.09362627437 0.5551406321 0.005)
            (-0.09572021644 0.5549460183 0.005)
            (-0.09572021644 0.5549460183 0.005)
            (-0.09785446109 0.5547454526 0.005)
            (-0.09785446109 0.5547454526 0.005)
            (-0.1000099327 0.5545409869 0.005)
            (-0.1000099327 0.5545409869 0.005)
            (-0.1021675556 0.5543346728 0.005)
            (-0.1021675556 0.5543346728 0.005)
            (-0.104308254 0.554128562 0.005)
            (-0.104308254 0.554128562 0.005)
            (-0.1064129524 0.5539247063 0.005)
            (-0.1064129524 0.5539247063 0.005)
            (-0.1084625752 0.5537251573 0.005)
            (-0.1084625752 0.5537251573 0.005)
            (-0.1104380464 0.5535319669 0.005)
            (-0.1104380464 0.5535319669 0.005)
            (-0.1123202907 0.5533471866 0.005)
            (-0.1123202907 0.5533471866 0.005)
            (-0.1140902323 0.5531728683 0.005)
            (-0.1140902323 0.5531728683 0.005)
            (-0.1157287954 0.5530110636 0.005)
            (-0.1157287954 0.5530110636 0.005)
            (-0.1173353159 0.5528520578 0.005)
            (-0.1173353159 0.5528520578 0.005)
            (-0.1196140424 0.5526229171 0.005)
            (-0.1196140424 0.5526229171 0.005)
            (-0.1220874734 0.5523669024 0.005)
            (-0.1220874734 0.5523669024 0.005)
            (-0.1238738293 0.5521723678 0.005)
            (-0.1238738293 0.5521723678 0.005)
            (-0.1253553055 0.5520051142 0.005)
            (-0.1253553055 0.5520051142 0.005)
            (-0.1269140971 0.5518309423 0.005)
            (-0.1269140971 0.5518309423 0.005)
            (-0.1286512733 0.5516419442 0.005)
            (-0.1286512733 0.5516419442 0.005)
            (-0.1303938857 0.551455363 0.005)
            (-0.1303938857 0.551455363 0.005)
            (-0.1320782369 0.5512766534 0.005)
            (-0.1320782369 0.5512766534 0.005)
            (-0.1337427718 0.5511006213 0.005)
            (-0.1337427718 0.5511006213 0.005)
            (-0.1354259355 0.5509220721 0.005)
            (-0.1354259355 0.5509220721 0.005)
            (-0.1371661729 0.5507358119 0.005)
            (-0.1371661729 0.5507358119 0.005)
            (-0.1390019288 0.5505366463 0.005)
            (-0.1390019288 0.5505366463 0.005)
            (-0.1409716481 0.5503193812 0.005)
            (-0.1409716481 0.5503193812 0.005)
            (-0.1431137758 0.5500788222 0.005)
            (-0.1431137758 0.5500788222 0.005)
            (-0.145022398 0.5498616153 0.005)
            (-0.145022398 0.5498616153 0.005)
            (-0.1466247411 0.5496777415 0.005)
            (-0.1466247411 0.5496777415 0.005)
            (-0.1482878703 0.5494862179 0.005)
            (-0.1482878703 0.5494862179 0.005)
            (-0.1500213512 0.5492858689 0.005)
            (-0.1500213512 0.5492858689 0.005)
            (-0.1518149094 0.5490777862 0.005)
            (-0.1518149094 0.5490777862 0.005)
            (-0.153658271 0.5488630614 0.005)
            (-0.153658271 0.5488630614 0.005)
            (-0.1555411617 0.5486427859 0.005)
            (-0.1555411617 0.5486427859 0.005)
            (-0.1574533074 0.5484180514 0.005)
            (-0.1574533074 0.5484180514 0.005)
            (-0.159384434 0.5481899495 0.005)
            (-0.159384434 0.5481899495 0.005)
            (-0.1613242672 0.5479595717 0.005)
            (-0.1613242672 0.5479595717 0.005)
            (-0.1632625332 0.5477280096 0.005)
            (-0.1632625332 0.5477280096 0.005)
            (-0.1651889576 0.5474963548 0.005)
            (-0.1651889576 0.5474963548 0.005)
            (-0.1670932664 0.5472656988 0.005)
            (-0.1670932664 0.5472656988 0.005)
            (-0.1689651853 0.5470371333 0.005)
            (-0.1689651853 0.5470371333 0.005)
            (-0.1708148771 0.546809235 0.005)
            (-0.1708148771 0.546809235 0.005)
            (-0.1726783222 0.5465775043 0.005)
            (-0.1726783222 0.5465775043 0.005)
            (-0.1745701897 0.5463402392 0.005)
            (-0.1745701897 0.5463402392 0.005)
            (-0.1764803474 0.5460988639 0.005)
            (-0.1764803474 0.5460988639 0.005)
            (-0.1784005539 0.5458545696 0.005)
            (-0.1784005539 0.5458545696 0.005)
            (-0.180322568 0.5456085474 0.005)
            (-0.180322568 0.5456085474 0.005)
            (-0.1822381482 0.5453619888 0.005)
            (-0.1822381482 0.5453619888 0.005)
            (-0.1841390535 0.545116085 0.005)
            (-0.1841390535 0.545116085 0.005)
            (-0.1860170424 0.5448720272 0.005)
            (-0.1860170424 0.5448720272 0.005)
            (-0.1878638737 0.5446310067 0.005)
            (-0.1878638737 0.5446310067 0.005)
            (-0.1896713061 0.5443942148 0.005)
            (-0.1896713061 0.5443942148 0.005)
            (-0.1914310983 0.5441628426 0.005)
            (-0.1914310983 0.5441628426 0.005)
            (-0.193135009 0.5439380816 0.005)
            (-0.193135009 0.5439380816 0.005)
            (-0.1947747968 0.543721123 0.005)
            (-0.1947747968 0.543721123 0.005)
            (-0.1965680515 0.5434827654 0.005)
            (-0.1965680515 0.5434827654 0.005)
            (-0.1985874752 0.5432119177 0.005)
            (-0.1985874752 0.5432119177 0.005)
            (-0.2005822542 0.5429410323 0.005)
            (-0.2005822542 0.5429410323 0.005)
            (-0.202463825 0.5426824201 0.005)
            (-0.202463825 0.5426824201 0.005)
            (-0.204258672 0.5424332097 0.005)
            (-0.204258672 0.5424332097 0.005)
            (-0.2059932801 0.5421905301 0.005)
            (-0.2059932801 0.5421905301 0.005)
            (-0.2076941341 0.5419515098 0.005)
            (-0.2076941341 0.5419515098 0.005)
            (-0.2093877184 0.5417132776 0.005)
            (-0.2093877184 0.5417132776 0.005)
            (-0.2111005179 0.5414729623 0.005)
            (-0.2111005179 0.5414729623 0.005)
            (-0.2128590173 0.5412276926 0.005)
            (-0.2128590173 0.5412276926 0.005)
            (-0.2144943723 0.5410029147 0.005)
            (-0.2144943723 0.5410029147 0.005)
            (-0.2158466445 0.54082169 0.005)
            (-0.2158466445 0.54082169 0.005)
            (-0.2173907433 0.540611256 0.005)
            (-0.2173907433 0.540611256 0.005)
            (-0.2198238819 0.5402642806 0.005)
            (-0.2198238819 0.5402642806 0.005)
            (-0.222008362 0.5399469222 0.005)
            (-0.222008362 0.5399469222 0.005)
            (-0.2234685651 0.5397333067 0.005)
            (-0.2234685651 0.5397333067 0.005)
            (-0.2250986699 0.5394947243 0.005)
            (-0.2250986699 0.5394947243 0.005)
            (-0.2268739704 0.5392346009 0.005)
            (-0.2268739704 0.5392346009 0.005)
            (-0.2287697612 0.5389563626 0.005)
            (-0.2287697612 0.5389563626 0.005)
            (-0.2307613366 0.5386634351 0.005)
            (-0.2307613366 0.5386634351 0.005)
            (-0.2328239906 0.5383592444 0.005)
            (-0.2328239906 0.5383592444 0.005)
            (-0.2349330179 0.5380472166 0.005)
            (-0.2349330179 0.5380472166 0.005)
            (-0.2370637124 0.5377307775 0.005)
            (-0.2370637124 0.5377307775 0.005)
            (-0.2391913687 0.5374133531 0.005)
            (-0.2391913687 0.5374133531 0.005)
            (-0.2412912809 0.5370983692 0.005)
            (-0.2412912809 0.5370983692 0.005)
            (-0.2433387434 0.536789252 0.005)
            (-0.2433387434 0.536789252 0.005)
            (-0.2453130516 0.5364888221 0.005)
            (-0.2453130516 0.5364888221 0.005)
            (-0.2472443726 0.5361925779 0.005)
            (-0.2472443726 0.5361925779 0.005)
            (-0.2491710044 0.5358951813 0.005)
            (-0.2491710044 0.5358951813 0.005)
            (-0.2510929401 0.5355968894 0.005)
            (-0.2510929401 0.5355968894 0.005)
            (-0.2530106092 0.5352976722 0.005)
            (-0.2530106092 0.5352976722 0.005)
            (-0.2549244409 0.5349975 0.005)
            (-0.2549244409 0.5349975 0.005)
            (-0.2568348644 0.5346963428 0.005)
            (-0.2568348644 0.5346963428 0.005)
            (-0.2587423088 0.5343941709 0.005)
            (-0.2587423088 0.5343941709 0.005)
            (-0.2606472036 0.5340909543 0.005)
            (-0.2606472036 0.5340909543 0.005)
            (-0.2625499777 0.5337866634 0.005)
            (-0.2625499777 0.5337866634 0.005)
            (-0.2644510604 0.5334812682 0.005)
            (-0.2644510604 0.5334812682 0.005)
            (-0.2663508811 0.5331747389 0.005)
            (-0.2663508811 0.5331747389 0.005)
            (-0.268249869 0.5328670456 0.005)
            (-0.268249869 0.5328670456 0.005)
            (-0.2701576677 0.5325565801 0.005)
            (-0.2701576677 0.5325565801 0.005)
            (-0.2721127157 0.5322365558 0.005)
            (-0.2721127157 0.5322365558 0.005)
            (-0.2741345304 0.5319033698 0.005)
            (-0.2741345304 0.5319033698 0.005)
            (-0.2762027715 0.5315605307 0.005)
            (-0.2762027715 0.5315605307 0.005)
            (-0.2782957425 0.5312118757 0.005)
            (-0.2782957425 0.5312118757 0.005)
            (-0.2803917468 0.5308612421 0.005)
            (-0.2803917468 0.5308612421 0.005)
            (-0.2824690877 0.5305124673 0.005)
            (-0.2824690877 0.5305124673 0.005)
            (-0.2845060688 0.5301693886 0.005)
            (-0.2845060688 0.5301693886 0.005)
            (-0.2864809933 0.5298358433 0.005)
            (-0.2864809933 0.5298358433 0.005)
            (-0.2883721647 0.5295156688 0.005)
            (-0.2883721647 0.5295156688 0.005)
            (-0.2901578865 0.5292127023 0.005)
            (-0.2901578865 0.5292127023 0.005)
            (-0.291816462 0.5289307813 0.005)
            (-0.291816462 0.5289307813 0.005)
            (-0.2933261946 0.5286737431 0.005)
            (-0.2933261946 0.5286737431 0.005)
            (-0.2954128168 0.5283159435 0.005)
            (-0.2954128168 0.5283159435 0.005)
            (-0.297819837 0.5278972968 0.005)
            (-0.297819837 0.5278972968 0.005)
            (-0.2996360326 0.5275730144 0.005)
            (-0.2996360326 0.5275730144 0.005)
            (-0.3011295358 0.5273007826 0.005)
            (-0.3011295358 0.5273007826 0.005)
            (-0.3026729107 0.5270205064 0.005)
            (-0.3026729107 0.5270205064 0.005)
            (-0.3044371585 0.5267047262 0.005)
            (-0.3044371585 0.5267047262 0.005)