/*--------------------------------*- C++ -*----------------------------------*\
| =========                 |                                                 |
| \\      /  F ield         | OpenFOAM: The Open Source CFD Toolbox           |
|  \\    /   O peration     | Version:  2412                                  |
|   \\  /    A nd           | Website:  www.openfoam.com                      |
|    \\/     M anipulation  |                                                 |
\*---------------------------------------------------------------------------*/
FoamFile
{
    version     2.0;
    format      ascii;
    arch        "LSB;label=32;scalar=64";
    class       polyBoundaryMesh;
    location    "constant/polyMesh";
    object      boundary;
}
// * * * * * * * * * * * * * * * * * * * * * * * * * * * * * * * * * * * * * //

6
(
    airfoil
    {
        type            wall;
        inGroups        1(wall);
        nFaces          1000;
        startFace       198840;
    }
    farfield
    {
        type            patch;
        nFaces          1000;
        startFace       199840;
    }
    suctionOutlet
    {
        type            patch;
        nFaces          160;
        startFace       200840;
    }
    pressureOutlet
    {
        type            patch;
        nFaces          160;
        startFace       201000;
    }
    front
    {
        type            empty;
        inGroups        1(empty);
        nFaces          40000;
        startFace       201160;
    }
    back
    {
        type            empty;
        inGroups        1(empty);
        nFaces          40000;
        startFace       241160;
    }
)

// ************************************************************************* //
