/*--------------------------------*- C++ -*----------------------------------*\
| =========                 |                                                 |
| \\      /  F ield         | OpenFOAM: The Open Source CFD Toolbox           |
|  \\    /   O peration     | Version:  v2312                                 |
|   \\  /    A nd           | Website:  www.openfoam.com                      |
|    \\/     M anipulation  |                                                 |
\*---------------------------------------------------------------------------*/
FoamFile
{
    version     2.0;
    format      ascii;
    class       dictionary;
    object      inputParam;
}
// * * * * * * * * * * * * * * * * * * * * * * * * * * * * * * * * * * * * * //

//Boundaries information
Upinlet
{
//Fluid properties
 freeStreamViscosity   1.456610719354608e-5;         //[m^2s^1]

//Output settings
 outputFormat          csv;      // csv | binary

//Export region settings
 exportMode            partial;  // full | partial
 xiInlet               0.05;     // chord fraction for inlet boundary (x/c)
 xiOutlet              0.50;     // chord fraction for outlet boundary (x/c)
 exportHeight          20;       // wall-normal distance from surface [mm]

//Airfoil geometry (must match system/inputDomain)
 chord                 900;      // [mm]
 alphaDeg              -3.0;     // [deg]
 xCenter               0.0;     // [mm]
 yCenter               0.0;     // [mm]
}

// ************************************************************************* //
