/*--------------------------------*- C++ -*----------------------------------*\
| =========                 |                                                 |
| \\      /  F ield         | OpenFOAM: The Open Source CFD Toolbox           |
|  \\    /   O peration     | Version:  v2312                                 |
|   \\  /    A nd           | Website:  www.openfoam.com                      |
|    \\/     M anipulation  |                                                 |
\*---------------------------------------------------------------------------*/
FoamFile
{
    version     2.0;
    format      ascii;
    class       dictionary;
    location    "system";
    object      blockMeshDict;
}
// * * * * * * * * * * * * * * * * * * * * * * * * * * * * * * * * * * * * * //
// Generated by generate_cgrid.jl  (221airfoilTopBottom)
//
// C-grid parameters:
//   chord      = 900.0 mm,  AoA = -3.0 deg
//   xi_arch    = 0.02
//   xi_suction = 0.5,  xi_pressure = 0.08
//   H_BL       = 280.0 mm,  H_far = 280.0 mm
//   segments   = 6+2+1+2+2  (suction+archUp+LE+archLo+pressure)
//   total blocks = 24
//   cosine arch = true

scale 0.001;   // vertices in mm → metres

vertices
(
    (    -4.23219420     80.75507609     -1.00000000 )   // 0
    (   -76.99699580     74.42900042     -1.00000000 )   // 1
    (  -149.47992087     65.42320797     -1.00000000 )   // 2
    (  -221.60579335     53.90267645     -1.00000000 )   // 3
    (  -293.24217081     39.66093953     -1.00000000 )   // 4
    (  -364.02684988     21.68944238     -1.00000000 )   // 5
    (  -432.40077270     -3.66511943     -1.00000000 )   // 6
    (  -441.11153196     -9.41983480     -1.00000000 )   // 7
    (  -449.38329064    -23.55118031     -1.00000000 )   // 8
    (  -439.67971769    -36.74047861     -1.00000000 )   // 9
    (  -430.41514533    -41.55314676     -1.00000000 )   // 10
    (  -403.31730524    -50.25276724     -1.00000000 )   // 11
    (  -375.55263514    -56.59678176     -1.00000000 )   // 12
    (   -22.59974109    360.15198592     -1.00000000 )   // 13
    (  -107.08833466    352.80736043     -1.00000000 )   // 14
    (  -187.92748063    342.77097729     -1.00000000 )   // 15
    (  -270.80312923    329.54668988     -1.00000000 )   // 16
    (  -353.97744016    312.99448496     -1.00000000 )   // 17
    (  -443.03961464    290.30996097     -1.00000000 )   // 18
    (  -564.34621516    243.29722631     -1.00000000 )   // 19
    (  -622.72770578    203.68944564     -1.00000000 )   // 20
    (  -728.99956037    -38.20524806     -1.00000000 )   // 21
    (  -598.02499351   -267.66638366     -1.00000000 )   // 22
    (  -535.82318236   -300.95466127     -1.00000000 )   // 23
    (  -476.15499537   -320.61302855     -1.00000000 )   // 24
    (  -430.50820713   -331.15075661     -1.00000000 )   // 25
    (   -40.96728798    639.54889575     -1.00000000 )   // 26
    (  -137.17967352    631.18572045     -1.00000000 )   // 27
    (  -226.37504039    620.11874661     -1.00000000 )   // 28
    (  -320.00046510    605.19070332     -1.00000000 )   // 29
    (  -414.71270950    586.32803039     -1.00000000 )   // 30
    (  -522.05237939    558.93047955     -1.00000000 )   // 31
    (  -696.29165762    490.25957205     -1.00000000 )   // 32
    (  -804.34387960    416.79872607     -1.00000000 )   // 33
    ( -1008.61583010    -52.85931581     -1.00000000 )   // 34
    (  -756.37026934   -498.59228871     -1.00000000 )   // 35
    (  -641.23121940   -560.35617577     -1.00000000 )   // 36
    (  -548.99268550   -590.97328986     -1.00000000 )   // 37
    (  -485.46377912   -605.70473146     -1.00000000 )   // 38
    (    -4.23219420     80.75507609      1.00000000 )   // 39
    (   -76.99699580     74.42900042      1.00000000 )   // 40
    (  -149.47992087     65.42320797      1.00000000 )   // 41
    (  -221.60579335     53.90267645      1.00000000 )   // 42
    (  -293.24217081     39.66093953      1.00000000 )   // 43
    (  -364.02684988     21.68944238      1.00000000 )   // 44
    (  -432.40077270     -3.66511943      1.00000000 )   // 45
    (  -441.11153196     -9.41983480      1.00000000 )   // 46
    (  -449.38329064    -23.55118031      1.00000000 )   // 47
    (  -439.67971769    -36.74047861      1.00000000 )   // 48
    (  -430.41514533    -41.55314676      1.00000000 )   // 49
    (  -403.31730524    -50.25276724      1.00000000 )   // 50
    (  -375.55263514    -56.59678176      1.00000000 )   // 51
    (   -22.59974109    360.15198592      1.00000000 )   // 52
    (  -107.08833466    352.80736043      1.00000000 )   // 53
    (  -187.92748063    342.77097729      1.00000000 )   // 54
    (  -270.80312923    329.54668988      1.00000000 )   // 55
    (  -353.97744016    312.99448496      1.00000000 )   // 56
    (  -443.03961464    290.30996097      1.00000000 )   // 57
    (  -564.34621516    243.29722631      1.00000000 )   // 58
    (  -622.72770578    203.68944564      1.00000000 )   // 59
    (  -728.99956037    -38.20524806      1.00000000 )   // 60
    (  -598.02499351   -267.66638366      1.00000000 )   // 61
    (  -535.82318236   -300.95466127      1.00000000 )   // 62
    (  -476.15499537   -320.61302855      1.00000000 )   // 63
    (  -430.50820713   -331.15075661      1.00000000 )   // 64
    (   -40.96728798    639.54889575      1.00000000 )   // 65
    (  -137.17967352    631.18572045      1.00000000 )   // 66
    (  -226.37504039    620.11874661      1.00000000 )   // 67
    (  -320.00046510    605.19070332      1.00000000 )   // 68
    (  -414.71270950    586.32803039      1.00000000 )   // 69
    (  -522.05237939    558.93047955      1.00000000 )   // 70
    (  -696.29165762    490.25957205      1.00000000 )   // 71
    (  -804.34387960    416.79872607      1.00000000 )   // 72
    ( -1008.61583010    -52.85931581      1.00000000 )   // 73
    (  -756.37026934   -498.59228871      1.00000000 )   // 74
    (  -641.23121940   -560.35617577      1.00000000 )   // 75
    (  -548.99268550   -590.97328986      1.00000000 )   // 76
    (  -485.46377912   -605.70473146      1.00000000 )   // 77
);

blocks
(
    hex (39 40 53 52 0 1 14 13)  (87 600 2) simpleGrading (1 200 1)   // block 0
    hex (52 53 66 65 13 14 27 26)  (87 113 2) simpleGrading (1 1 1)   // block 1
    hex (40 41 54 53 1 2 15 14)  (87 600 2) simpleGrading (1 200 1)   // block 2
    hex (53 54 67 66 14 15 28 27)  (87 113 2) simpleGrading (1 1 1)   // block 3
    hex (41 42 55 54 2 3 16 15)  (87 600 2) simpleGrading (1 200 1)   // block 4
    hex (54 55 68 67 15 16 29 28)  (87 113 2) simpleGrading (1 1 1)   // block 5
    hex (42 43 56 55 3 4 17 16)  (87 600 2) simpleGrading (1 200 1)   // block 6
    hex (55 56 69 68 16 17 30 29)  (87 113 2) simpleGrading (1 1 1)   // block 7
    hex (43 44 57 56 4 5 18 17)  (87 600 2) simpleGrading (1 200 1)   // block 8
    hex (56 57 70 69 17 18 31 30)  (87 113 2) simpleGrading (1 1 1)   // block 9
    hex (44 45 58 57 5 6 19 18)  (87 600 2) simpleGrading (1 200 1)   // block 10
    hex (57 58 71 70 18 19 32 31)  (87 113 2) simpleGrading (1 1 1)   // block 11
    hex (45 46 59 58 6 7 20 19)  (17 600 2) simpleGrading (0.516122 200 1)   // block 12
    hex (58 59 72 71 19 20 33 32)  (17 113 2) simpleGrading (0.516122 1 1)   // block 13
    hex (46 47 60 59 7 8 21 20)  (94 600 2) simpleGrading (0.119232 200 1)   // block 14
    hex (59 60 73 72 20 21 34 33)  (94 113 2) simpleGrading (0.119232 1 1)   // block 15
    hex (47 48 61 60 8 9 22 21)  (54 600 2) simpleGrading (18.5025 200 1)   // block 16
    hex (60 61 74 73 21 22 35 34)  (54 113 2) simpleGrading (18.5025 1 1)   // block 17
    hex (48 49 62 61 9 10 23 22)  (14 600 2) simpleGrading (0.59597 200 1)   // block 18
    hex (61 62 75 74 22 23 36 35)  (14 113 2) simpleGrading (0.59597 1 1)   // block 19
    hex (49 50 63 62 10 11 24 23)  (50 600 2) simpleGrading (1 200 1)   // block 20
    hex (62 63 76 75 23 24 37 36)  (50 113 2) simpleGrading (1 1 1)   // block 21
    hex (50 51 64 63 11 12 25 24)  (50 600 2) simpleGrading (1 200 1)   // block 22
    hex (63 64 77 76 24 25 38 37)  (50 113 2) simpleGrading (1 1 1)   // block 23
);

edges
(
    polyLine 0 1 ( (   -11.51773478    80.23008347    -1.00000000 ) (   -18.80327535    79.70509085    -1.00000000 ) (   -26.08864850    79.17796734    -1.00000000 ) (   -33.36678322    78.55871483    -1.00000000 ) (   -40.64491795    77.93946232    -1.00000000 ) (   -47.92268482    77.31614687    -1.00000000 ) (   -55.19369147    76.61816338    -1.00000000 ) (   -62.46469813    75.92017988    -1.00000000 ) (   -69.73486849    75.21400085    -1.00000000 ) )
    polyLine 1 2 ( (   -84.25912311    73.64399998    -1.00000000 ) (   -91.51999440    72.84789417    -1.00000000 ) (   -98.77400568    71.99113332    -1.00000000 ) (  -106.02801695    71.13437247    -1.00000000 ) (  -113.27969956    70.25876911    -1.00000000 ) (  -120.52403788    69.32373918    -1.00000000 ) (  -127.76837620    68.38870924    -1.00000000 ) (  -135.00943682    67.42919057    -1.00000000 ) (  -142.24467885    66.42619927    -1.00000000 ) )
    polyLine 2 3 ( (  -156.71000225    64.38425815    -1.00000000 ) (  -163.93529216    63.31192219    -1.00000000 ) (  -171.16058207    62.23958623    -1.00000000 ) (  -178.37801871    61.11606891    -1.00000000 ) (  -185.59242141    59.97277873    -1.00000000 ) (  -192.80682410    58.82948856    -1.00000000 ) (  -200.01098127    57.62336117    -1.00000000 ) (  -207.21489838    56.41576149    -1.00000000 ) (  -214.41499765    55.18609990    -1.00000000 ) )
    polyLine 3 4 ( (  -228.79658906    52.61925300    -1.00000000 ) (  -235.97887149    51.28942813    -1.00000000 ) (  -243.15693203    49.93659201    -1.00000000 ) (  -250.33343046    48.57568276    -1.00000000 ) (  -257.49803278    47.15329309    -1.00000000 ) (  -264.66263509    45.73090341    -1.00000000 ) (  -271.81749695    44.26075360    -1.00000000 ) (  -278.96690632    42.76386872    -1.00000000 ) (  -286.11164887    41.24535600    -1.00000000 ) )
    polyLine 4 5 ( (  -300.37269275    38.07652306    -1.00000000 ) (  -307.48543586    36.41423743    -1.00000000 ) (  -314.59703434    34.74693849    -1.00000000 ) (  -321.69270851    33.01362780    -1.00000000 ) (  -328.78230181    31.25510983    -1.00000000 ) (  -335.85722632    29.43910336    -1.00000000 ) (  -342.92263975    27.58582200    -1.00000000 ) (  -349.97178105    25.67228732    -1.00000000 ) (  -357.00959865    23.71682265    -1.00000000 ) )
    polyLine 5 6 ( (  -371.03442189    19.62821623    -1.00000000 ) (  -378.01176433    17.46721047    -1.00000000 ) (  -384.97690610    15.26751530    -1.00000000 ) (  -391.90899202    12.96514618    -1.00000000 ) (  -398.80847506    10.56806283    -1.00000000 ) (  -405.67678258     8.08295362    -1.00000000 ) (  -412.49248463     5.45599258    -1.00000000 ) (  -419.23877031     2.65651029    -1.00000000 ) (  -425.89153753    -0.35601478    -1.00000000 ) )
    polyLine 6 7 ( (  -434.53813750    -4.80705685    -1.00000000 ) (  -439.57678127    -8.11188825    -1.00000000 ) )
    polyLine 7 8 ( (  -443.58145395   -11.52475384    -1.00000000 ) (  -446.54467515   -15.01642206    -1.00000000 ) (  -448.46340356   -18.52454831    -1.00000000 ) (  -448.84996984   -20.18007343    -1.00000000 ) (  -449.12418667   -21.72144166    -1.00000000 ) (  -449.29869346   -22.90747828    -1.00000000 ) (  -449.35810262   -23.35442273    -1.00000000 ) )
    polyLine 8 9 ( (  -449.33767383   -23.74422717    -1.00000000 ) (  -449.23187171   -24.18251326    -1.00000000 ) (  -448.93434630   -25.34381172    -1.00000000 ) (  -448.50051481   -26.84807271    -1.00000000 ) (  -447.94301668   -28.45412150    -1.00000000 ) (  -445.66810022   -31.74246814    -1.00000000 ) (  -442.35613314   -34.90526768    -1.00000000 ) )
    polyLine 9 10 ( (  -438.01665688   -37.88083496    -1.00000000 ) (  -432.66016638   -40.64088045    -1.00000000 ) )
    polyLine 10 11 ( (  -427.77622322   -42.62547511    -1.00000000 ) (  -425.11435947   -43.63684513    -1.00000000 ) (  -422.42323873   -44.57047626    -1.00000000 ) (  -419.73211798   -45.50410740    -1.00000000 ) (  -417.01538883   -46.35866888    -1.00000000 ) (  -414.28788909   -47.17997465    -1.00000000 ) (  -411.56038936   -48.00128041    -1.00000000 ) (  -408.81811869   -48.77079447    -1.00000000 ) (  -406.06771197   -49.51178085    -1.00000000 ) )
    polyLine 11 12 ( (  -400.56221072   -50.97542575    -1.00000000 ) (  -397.79379740   -51.64601179    -1.00000000 ) (  -395.02538408   -52.31659783    -1.00000000 ) (  -392.25697075   -52.98718386    -1.00000000 ) (  -389.48080410   -53.62417229    -1.00000000 ) (  -386.69849152   -54.23452850    -1.00000000 ) (  -383.91617895   -54.84488471    -1.00000000 ) (  -381.13386638   -55.45524091    -1.00000000 ) (  -378.34570500   -56.03771226    -1.00000000 ) )
    polyLine 13 14 ( (   -31.62220308   359.50738430    -1.00000000 ) (   -38.88772513   358.98383420    -1.00000000 ) (   -49.76739144   358.17495772    -1.00000000 ) (   -57.09470785   357.55152064    -1.00000000 ) (   -64.42202426   356.92808356    -1.00000000 ) (   -74.76912328   356.02617010    -1.00000000 ) (   -82.12479291   355.32005934    -1.00000000 ) (   -89.48046253   354.61394859    -1.00000000 ) (  -100.11783462   353.56083739    -1.00000000 ) )
    polyLine 14 15 ( (  -114.43307851   352.01342956    -1.00000000 ) (  -124.48939268   350.90011085    -1.00000000 ) (  -131.61071079   350.05902220    -1.00000000 ) (  -138.73202890   349.21793355    -1.00000000 ) (  -148.85393297   347.98983873    -1.00000000 ) (  -155.97672419   347.07049693    -1.00000000 ) (  -163.09951542   346.15115513    -1.00000000 ) (  -172.93161625   344.84979117    -1.00000000 ) (  -180.42954844   343.81038423    -1.00000000 ) )
    polyLine 15 16 ( (  -197.15329289   341.44885125    -1.00000000 ) (  -204.48032648   340.36141508    -1.00000000 ) (  -211.80736008   339.27397890    -1.00000000 ) (  -221.85604703   337.72009077    -1.00000000 ) (  -229.18575656   336.55852754    -1.00000000 ) (  -236.51546609   335.39696431    -1.00000000 ) (  -246.25130170   333.77881628    -1.00000000 ) (  -253.51960414   332.56042363    -1.00000000 ) (  -263.65769451   330.82201724    -1.00000000 ) )
    polyLine 16 17 ( (  -278.13245955   328.23854058    -1.00000000 ) (  -288.08599909   326.39833649    -1.00000000 ) (  -295.36259568   325.02692946    -1.00000000 ) (  -305.29155478   323.12950295    -1.00000000 ) (  -312.48950187   321.70049333    -1.00000000 ) (  -319.68744897   320.27148371    -1.00000000 ) (  -329.61849480   318.23014919    -1.00000000 ) (  -336.64444152   316.75911391    -1.00000000 ) (  -347.00966078   314.54273970    -1.00000000 ) )
    polyLine 17 18 ( (  -361.39005601   311.34738665    -1.00000000 ) (  -371.95300994   308.89223115    -1.00000000 ) (  -379.33828845   307.16076851    -1.00000000 ) (  -390.07142121   304.53775135    -1.00000000 ) (  -397.28079949   302.74952166    -1.00000000 ) (  -407.98490516   299.99197911    -1.00000000 ) (  -415.01395180   298.14823689    -1.00000000 ) (  -425.81383505   295.20674439    -1.00000000 ) (  -432.64454875   293.30882375    -1.00000000 ) )
    polyLine 18 19 ( (  -456.99329309   286.13594367    -1.00000000 ) (  -465.91965458   283.35245824    -1.00000000 ) (  -479.19120137   279.01564858    -1.00000000 ) (  -492.80002652   274.32095546    -1.00000000 ) (  -506.84162846   269.16899918    -1.00000000 ) (  -513.60943969   266.56049659    -1.00000000 ) (  -526.92400903   261.12189817    -1.00000000 ) (  -542.53921741   254.20170761    -1.00000000 ) (  -546.93510866   252.13941412    -1.00000000 ) )
    polyLine 19 20 ( (  -564.44856189   243.31272156    -1.00000000 ) (  -564.54725432   243.25848877    -1.00000000 ) (  -564.64593750   243.20407945    -1.00000000 ) (  -564.74461134   243.14949180    -1.00000000 ) (  -564.84327573   243.09472399    -1.00000000 ) (  -564.94193059   243.03977421    -1.00000000 ) (  -565.04057581   242.98464063    -1.00000000 ) (  -565.13921131   242.92932145    -1.00000000 ) (  -565.23783699   242.87381485    -1.00000000 ) (  -565.33645274   242.81811900    -1.00000000 ) (  -565.43505849   242.76223209    -1.00000000 ) (  -565.53365412   242.70615230    -1.00000000 ) (  -565.63223955   242.64987781    -1.00000000 ) (  -565.73081469   242.59340681    -1.00000000 ) (  -565.82937943   242.53673748    -1.00000000 ) (  -565.92793368   242.47986799    -1.00000000 ) (  -566.02647734   242.42279654    -1.00000000 ) (  -566.12501033   242.36552130    -1.00000000 ) (  -566.22353254   242.30804046    -1.00000000 ) (  -566.32204387   242.25035219    -1.00000000 ) (  -566.42054425   242.19245469    -1.00000000 ) (  -588.13936125   229.30384635    -1.00000000 ) (  -588.23711275   229.24698970    -1.00000000 ) (  -588.33485271   229.18991283    -1.00000000 ) (  -588.43258094   229.13261207    -1.00000000 ) (  -588.53029725   229.07508377    -1.00000000 ) (  -588.62800143   229.01732425    -1.00000000 ) (  -588.72569331   228.95932986    -1.00000000 ) (  -588.82337268   228.90109691    -1.00000000 ) (  -588.92103936   228.84262176    -1.00000000 ) (  -589.01869316   228.78390073    -1.00000000 ) (  -589.11633387   228.72493015    -1.00000000 ) (  -589.21396132   228.66570637    -1.00000000 ) (  -589.31157530   228.60622570    -1.00000000 ) (  -589.40917563   228.54648450    -1.00000000 ) (  -589.50676212   228.48647909    -1.00000000 ) (  -589.60433456   228.42620581    -1.00000000 ) (  -589.70189278   228.36566098    -1.00000000 ) (  -589.79943657   228.30484096    -1.00000000 ) (  -589.89696574   228.24374206    -1.00000000 ) (  -589.99448011   228.18236062    -1.00000000 ) (  -590.09197948   228.12069298    -1.00000000 ) (  -590.18946366   228.05873547    -1.00000000 ) (  -590.28693245   227.99648443    -1.00000000 ) (  -590.38438567   227.93393618    -1.00000000 ) (  -590.48182312   227.87108707    -1.00000000 ) (  -590.57924461   227.80793343    -1.00000000 ) (  -590.67664995   227.74447159    -1.00000000 ) (  -590.77403895   227.68069789    -1.00000000 ) (  -590.87141141   227.61660865    -1.00000000 ) (  -590.96876714   227.55220022    -1.00000000 ) (  -591.06610595   227.48746892    -1.00000000 ) (  -591.16342765   227.42241110    -1.00000000 ) (  -591.26073204   227.35702309    -1.00000000 ) (  -591.35801894   227.29130121    -1.00000000 ) (  -591.45528814   227.22524181    -1.00000000 ) (  -591.55253947   227.15884122    -1.00000000 ) (  -591.64977272   227.09209577    -1.00000000 ) (  -591.74698771   227.02500180    -1.00000000 ) (  -591.84418424   226.95755563    -1.00000000 ) (  -591.94136212   226.88975362    -1.00000000 ) (  -592.03852116   226.82159208    -1.00000000 ) (  -592.13566116   226.75306735    -1.00000000 ) (  -592.23278194   226.68417577    -1.00000000 ) (  -592.32988330   226.61491368    -1.00000000 ) (  -592.42696505   226.54527739    -1.00000000 ) (  -592.52402700   226.47526326    -1.00000000 ) (  -592.62106896   226.40486761    -1.00000000 ) (  -592.71809072   226.33408678    -1.00000000 ) (  -592.81509211   226.26291710    -1.00000000 ) (  -592.91207293   226.19135490    -1.00000000 ) (  -593.00903298   226.11939653    -1.00000000 ) (  -593.10597208   226.04703831    -1.00000000 ) (  -621.22892248   204.97127343    -1.00000000 ) (  -621.28693706   204.92901475    -1.00000000 ) (  -621.34494347   204.88659990    -1.00000000 ) (  -621.40294157   204.84402670    -1.00000000 ) (  -621.46093126   204.80129298    -1.00000000 ) (  -621.51891243   204.75839658    -1.00000000 ) (  -621.57688496   204.71533532    -1.00000000 ) (  -621.63484873   204.67210703    -1.00000000 ) (  -621.69280363   204.62870953    -1.00000000 ) (  -621.75074956   204.58514066    -1.00000000 ) (  -621.80868638   204.54139825    -1.00000000 ) (  -621.86661400   204.49748012    -1.00000000 ) (  -621.92453230   204.45338410    -1.00000000 ) (  -621.98244116   204.40910802    -1.00000000 ) (  -622.04034047   204.36464971    -1.00000000 ) (  -622.09823012   204.32000699    -1.00000000 ) (  -622.15610998   204.27517770    -1.00000000 ) (  -622.21397996   204.23015967    -1.00000000 ) (  -622.27183993   204.18495071    -1.00000000 ) (  -622.32968978   204.13954867    -1.00000000 ) (  -622.38752940   204.09395137    -1.00000000 ) (  -622.44535867   204.04815664    -1.00000000 ) (  -622.50317748   204.00216230    -1.00000000 ) (  -622.56098572   203.95596618    -1.00000000 ) (  -622.61878326   203.90956613    -1.00000000 ) (  -622.67657001   203.86295995    -1.00000000 ) )
    polyLine 20 21 ( (  -622.92169434   203.66281922    -1.00000000 ) (  -623.10892289   203.50720402    -1.00000000 ) (  -623.29602759   203.34922576    -1.00000000 ) (  -623.48300457   203.18881030    -1.00000000 ) (  -623.66984993   203.02588352    -1.00000000 ) (  -623.85655979   202.86037127    -1.00000000 ) (  -624.04313028   202.69219944    -1.00000000 ) (  -624.22955749   202.52129388    -1.00000000 ) (  -624.41583755   202.34758047    -1.00000000 ) (  -624.60196657   202.17098507    -1.00000000 ) (  -624.78794067   201.99143355    -1.00000000 ) (  -624.97375595   201.80885178    -1.00000000 ) (  -625.15940855   201.62316563    -1.00000000 ) (  -657.15196934   169.56936838    -1.00000000 ) (  -657.26004629   169.46663643    -1.00000000 ) (  -657.36805348   169.36257334    -1.00000000 ) (  -657.47598768   169.25711750    -1.00000000 ) (  -657.58384566   169.15020726    -1.00000000 ) (  -657.69162419   169.04178100    -1.00000000 ) (  -657.79932004   168.93177710    -1.00000000 ) (  -657.90692997   168.82013393    -1.00000000 ) (  -658.01445077   168.70678987    -1.00000000 ) (  -658.12187920   168.59168328    -1.00000000 ) (  -658.22921202   168.47475254    -1.00000000 ) (  -658.33644602   168.35593603    -1.00000000 ) (  -658.44357796   168.23517212    -1.00000000 ) (  -658.55060461   168.11239917    -1.00000000 ) (  -658.65752274   167.98755557    -1.00000000 ) (  -658.76432912   167.86057969    -1.00000000 ) (  -658.87102053   167.73140990    -1.00000000 ) (  -658.97759373   167.59998457    -1.00000000 ) (  -659.08404549   167.46624209    -1.00000000 ) (  -659.19037258   167.33012081    -1.00000000 ) (  -659.29657178   167.19155912    -1.00000000 ) (  -659.40263985   167.05049539    -1.00000000 ) (  -659.50857356   166.90686799    -1.00000000 ) (  -659.61436969   166.76061530    -1.00000000 ) (  -659.72002500   166.61167569    -1.00000000 ) (  -659.82553627   166.45998753    -1.00000000 ) (  -659.93090026   166.30548919    -1.00000000 ) (  -684.45257043   132.63374069    -1.00000000 ) (  -692.25143389   119.30400168    -1.00000000 ) (  -692.29776139   119.26625459    -1.00000000 ) (  -692.34402821   119.22734964    -1.00000000 ) (  -692.39023061   119.18721548    -1.00000000 ) (  -692.43636485   119.14578077    -1.00000000 ) (  -692.48242719   119.10297415    -1.00000000 ) (  -692.52841390   119.05872429    -1.00000000 ) (  -692.57432123   119.01295984    -1.00000000 ) (  -692.62014544   118.96560944    -1.00000000 ) (  -692.66588280   118.91660175    -1.00000000 ) (  -692.71152956   118.86586542    -1.00000000 ) (  -692.75708199   118.81332911    -1.00000000 ) (  -692.80253635   118.75892147    -1.00000000 ) (  -692.84788889   118.70257115    -1.00000000 ) (  -692.89313589   118.64420680    -1.00000000 ) (  -692.93827360   118.58375708    -1.00000000 ) (  -692.98329827   118.52115064    -1.00000000 ) (  -693.02820618   118.45631613    -1.00000000 ) (  -693.07299358   118.38918220    -1.00000000 ) (  -693.11765674   118.31967751    -1.00000000 ) (  -693.16219191   118.24773071    -1.00000000 ) (  -693.20659535   118.17327045    -1.00000000 ) (  -693.25086333   118.09622538    -1.00000000 ) (  -693.29499211   118.01652416    -1.00000000 ) (  -693.33897795   117.93409545    -1.00000000 ) (  -693.38281710   117.84886788    -1.00000000 ) (  -693.42650583   117.76077012    -1.00000000 ) (  -693.47004041   117.66973082    -1.00000000 ) (  -693.51341708   117.57567863    -1.00000000 ) (  -693.55663212   117.47854220    -1.00000000 ) (  -693.59968178   117.37825018    -1.00000000 ) (  -693.64256232   117.27473124    -1.00000000 ) (  -693.68527001   117.16791402    -1.00000000 ) (  -693.72780111   117.05772717    -1.00000000 ) (  -693.77015187   116.94409935    -1.00000000 ) (  -693.81231855   116.82695920    -1.00000000 ) (  -693.85429743   116.70623539    -1.00000000 ) (  -693.89608475   116.58185656    -1.00000000 ) (  -693.93767678   116.45375137    -1.00000000 ) (  -693.97906979   116.32184847    -1.00000000 ) (  -694.02026002   116.18607652    -1.00000000 ) (  -694.06124375   116.04636415    -1.00000000 ) (  -694.10201723   115.90264004    -1.00000000 ) (  -723.92371118    31.75241745    -1.00000000 ) (  -723.98710351    31.50886125    -1.00000000 ) (  -724.04993714    31.25464451    -1.00000000 ) (  -724.11219743    30.98948764    -1.00000000 ) (  -724.17386971    30.71311107    -1.00000000 ) (  -724.23493935    30.42523521    -1.00000000 ) (  -724.27594558    30.22361579    -1.00000000 ) (  -724.29539168    30.12558050    -1.00000000 ) (  -724.35521205    29.81386735    -1.00000000 ) (  -724.41438582    29.48981618    -1.00000000 ) (  -724.47289832    29.15314741    -1.00000000 ) (  -724.53073492    28.80358147    -1.00000000 ) (  -724.55016241    28.68224757    -1.00000000 ) (  -724.58788095    28.44083878    -1.00000000 ) (  -724.64432176    28.06463975    -1.00000000 ) (  -724.70004270    27.67470482    -1.00000000 ) (  -724.72466920    27.49621095    -1.00000000 ) (  -724.75502913    27.27075440    -1.00000000 ) (  -724.78407836    27.04926650    -1.00000000 ) )