/*--------------------------------*- C++ -*----------------------------------*\
| =========                 |                                                 |
| \\      /  F ield         | OpenFOAM: The Open Source CFD Toolbox           |
|  \\    /   O peration     | Version:  v2312                                 |
|   \\  /    A nd           | Website:  www.openfoam.com                      |
|    \\/     M anipulation  |                                                 |
\*---------------------------------------------------------------------------*/
FoamFile
{
    version     2.0;
    format      ascii;
    class       dictionary;
    location    "system";
    object      blockMeshDict;
}
// * * * * * * * * * * * * * * * * * * * * * * * * * * * * * * * * * * * * * //
// Generated by generate_cgrid.jl  (221airfoilTopBottom)
//
// C-grid parameters:
//   chord      = 900.0 mm,  AoA = -3.0 deg
//   xi_arch    = 0.025
//   xi_suction = 0.5,  xi_pressure = 0.1
//   H_BL       = 240.0 mm,  H_far = 240.0 mm
//   segments   = 6+2+1+2+4  (suction+archUp+LE+archLo+pressure)
//   total blocks = 28
//   cosine arch = true

scale 0.001;   // vertices in mm → metres

vertices
(
    (    -4.23219420     80.75507609     -1.00000000 )   // 0
    (   -76.17544389     74.51780616     -1.00000000 )   // 1
    (  -147.84290003     65.65014131     -1.00000000 )   // 2
    (  -219.16534649     54.33825088     -1.00000000 )   // 3
    (  -290.01551634     40.37790871     -1.00000000 )   // 4
    (  -360.06307735     22.85535714     -1.00000000 )   // 5
    (  -428.01579169     -1.35258982     -1.00000000 )   // 6
    (  -438.94858446     -7.69985584     -1.00000000 )   // 7
    (  -449.38329064    -23.55118031     -1.00000000 )   // 8
    (  -437.34883229    -38.22494576     -1.00000000 )   // 9
    (  -425.81246053    -43.39465277     -1.00000000 )   // 10
    (  -409.00472571    -48.72052072     -1.00000000 )   // 11
    (  -391.91447672    -53.07014536     -1.00000000 )   // 12
    (  -374.67204474    -56.77304345     -1.00000000 )   // 13
    (  -357.34614880    -60.06542931     -1.00000000 )   // 14
    (   -19.97580582    320.23814166     -1.00000000 )   // 15
    (  -101.96802006    313.12782903     -1.00000000 )   // 16
    (  -180.79795125    303.37680073     -1.00000000 )   // 17
    (  -261.33449153    290.60454811     -1.00000000 )   // 18
    (  -342.07431863    274.66380479     -1.00000000 )   // 19
    (  -427.78830428    253.10151593     -1.00000000 )   // 20
    (  -529.94959485    215.92488203     -1.00000000 )   // 21
    (  -570.57661162    192.98413073     -1.00000000 )   // 22
    (  -689.05437898    -36.11180981     -1.00000000 )   // 23
    (  -547.27859862   -251.56843986     -1.00000000 )   // 24
    (  -504.47617942   -270.13683969     -1.00000000 )   // 25
    (  -471.43703153   -280.45788756     -1.00000000 )   // 26
    (  -448.41515409   -286.32467041     -1.00000000 )   // 27
    (  -421.77682073   -292.10502190     -1.00000000 )   // 28
    (  -400.63309270   -296.12948944     -1.00000000 )   // 29
    (   -35.71941744    559.72120723     -1.00000000 )   // 30
    (  -127.76059622    551.73785190     -1.00000000 )   // 31
    (  -213.75300248    541.10346015     -1.00000000 )   // 32
    (  -303.50363656    526.87084534     -1.00000000 )   // 33
    (  -394.13312092    508.94970088     -1.00000000 )   // 34
    (  -495.51353122    483.34767471     -1.00000000 )   // 35
    (  -631.88339802    433.20235387     -1.00000000 )   // 36
    (  -702.20463878    393.66811730     -1.00000000 )   // 37
    (  -928.72546732    -48.67243931     -1.00000000 )   // 38
    (  -657.20836496   -464.91193396     -1.00000000 )   // 39
    (  -583.13989831   -496.87902661     -1.00000000 )   // 40
    (  -533.86933735   -512.19525440     -1.00000000 )   // 41
    (  -504.91583146   -519.57919546     -1.00000000 )   // 42
    (  -468.88159672   -527.43700034     -1.00000000 )   // 43
    (  -443.92003660   -532.19354958     -1.00000000 )   // 44
    (    -4.23219420     80.75507609      1.00000000 )   // 45
    (   -76.17544389     74.51780616      1.00000000 )   // 46
    (  -147.84290003     65.65014131      1.00000000 )   // 47
    (  -219.16534649     54.33825088      1.00000000 )   // 48
    (  -290.01551634     40.37790871      1.00000000 )   // 49
    (  -360.06307735     22.85535714      1.00000000 )   // 50
    (  -428.01579169     -1.35258982      1.00000000 )   // 51
    (  -438.94858446     -7.69985584      1.00000000 )   // 52
    (  -449.38329064    -23.55118031      1.00000000 )   // 53
    (  -437.34883229    -38.22494576      1.00000000 )   // 54
    (  -425.81246053    -43.39465277      1.00000000 )   // 55
    (  -409.00472571    -48.72052072      1.00000000 )   // 56
    (  -391.91447672    -53.07014536      1.00000000 )   // 57
    (  -374.67204474    -56.77304345      1.00000000 )   // 58
    (  -357.34614880    -60.06542931      1.00000000 )   // 59
    (   -19.97580582    320.23814166      1.00000000 )   // 60
    (  -101.96802006    313.12782903      1.00000000 )   // 61
    (  -180.79795125    303.37680073      1.00000000 )   // 62
    (  -261.33449153    290.60454811      1.00000000 )   // 63
    (  -342.07431863    274.66380479      1.00000000 )   // 64
    (  -427.78830428    253.10151593      1.00000000 )   // 65
    (  -529.94959485    215.92488203      1.00000000 )   // 66
    (  -570.57661162    192.98413073      1.00000000 )   // 67
    (  -689.05437898    -36.11180981      1.00000000 )   // 68
    (  -547.27859862   -251.56843986      1.00000000 )   // 69
    (  -504.47617942   -270.13683969      1.00000000 )   // 70
    (  -471.43703153   -280.45788756      1.00000000 )   // 71
    (  -448.41515409   -286.32467041      1.00000000 )   // 72
    (  -421.77682073   -292.10502190      1.00000000 )   // 73
    (  -400.63309270   -296.12948944      1.00000000 )   // 74
    (   -35.71941744    559.72120723      1.00000000 )   // 75
    (  -127.76059622    551.73785190      1.00000000 )   // 76
    (  -213.75300248    541.10346015      1.00000000 )   // 77
    (  -303.50363656    526.87084534      1.00000000 )   // 78
    (  -394.13312092    508.94970088      1.00000000 )   // 79
    (  -495.51353122    483.34767471      1.00000000 )   // 80
    (  -631.88339802    433.20235387      1.00000000 )   // 81
    (  -702.20463878    393.66811730      1.00000000 )   // 82
    (  -928.72546732    -48.67243931      1.00000000 )   // 83
    (  -657.20836496   -464.91193396      1.00000000 )   // 84
    (  -583.13989831   -496.87902661      1.00000000 )   // 85
    (  -533.86933735   -512.19525440      1.00000000 )   // 86
    (  -504.91583146   -519.57919546      1.00000000 )   // 87
    (  -468.88159672   -527.43700034      1.00000000 )   // 88
    (  -443.92003660   -532.19354958      1.00000000 )   // 89
);

blocks
(
    hex (45 46 61 60 0 1 16 15)  (47 60 2) simpleGrading (1 18 1)   // block 0
    hex (60 61 76 75 15 16 31 30)  (47 20 2) simpleGrading (1 1 1)   // block 1
    hex (46 47 62 61 1 2 17 16)  (47 60 2) simpleGrading (1 18 1)   // block 2
    hex (61 62 77 76 16 17 32 31)  (47 20 2) simpleGrading (1 1 1)   // block 3
    hex (47 48 63 62 2 3 18 17)  (47 60 2) simpleGrading (1 18 1)   // block 4
    hex (62 63 78 77 17 18 33 32)  (47 20 2) simpleGrading (1 1 1)   // block 5
    hex (48 49 64 63 3 4 19 18)  (47 60 2) simpleGrading (1 18 1)   // block 6
    hex (63 64 79 78 18 19 34 33)  (47 20 2) simpleGrading (1 1 1)   // block 7
    hex (49 50 65 64 4 5 20 19)  (47 60 2) simpleGrading (1 18 1)   // block 8
    hex (64 65 80 79 19 20 35 34)  (47 20 2) simpleGrading (1 1 1)   // block 9
    hex (50 51 66 65 5 6 21 20)  (47 60 2) simpleGrading (1 18 1)   // block 10
    hex (65 66 81 80 20 21 36 35)  (47 20 2) simpleGrading (1 1 1)   // block 11
    hex (51 52 67 66 6 7 22 21)  (10 60 2) simpleGrading (0.667197 18 1)   // block 12
    hex (66 67 82 81 21 22 37 36)  (10 20 2) simpleGrading (0.667197 1 1)   // block 13
    hex (52 53 68 67 7 8 23 22)  (56 60 2) simpleGrading (0.0634676 18 1)   // block 14
    hex (67 68 83 82 22 23 38 37)  (56 20 2) simpleGrading (0.0634676 1 1)   // block 15
    hex (53 54 69 68 8 9 24 23)  (51 60 2) simpleGrading (17.9281 18 1)   // block 16
    hex (68 69 84 83 23 24 39 38)  (51 20 2) simpleGrading (17.9281 1 1)   // block 17
    hex (54 55 70 69 9 10 25 24)  (13 60 2) simpleGrading (0.687031 18 1)   // block 18
    hex (69 70 85 84 24 25 40 39)  (13 20 2) simpleGrading (0.687031 1 1)   // block 19
    hex (55 56 71 70 10 11 26 25)  (22 60 2) simpleGrading (1 18 1)   // block 20
    hex (70 71 86 85 25 26 41 40)  (22 20 2) simpleGrading (1 1 1)   // block 21
    hex (56 57 72 71 11 12 27 26)  (22 60 2) simpleGrading (1 18 1)   // block 22
    hex (71 72 87 86 26 27 42 41)  (22 20 2) simpleGrading (1 1 1)   // block 23
    hex (57 58 73 72 12 13 28 27)  (22 60 2) simpleGrading (1 18 1)   // block 24
    hex (72 73 88 87 27 28 43 42)  (22 20 2) simpleGrading (1 1 1)   // block 25
    hex (58 59 74 73 13 14 29 28)  (22 60 2) simpleGrading (1 18 1)   // block 26
    hex (73 74 89 88 28 29 44 43)  (22 20 2) simpleGrading (1 1 1)   // block 27
);

edges
(
    spline 0 1 ( (   -25.92411539    79.19196647    -1.00000000 ) (   -47.54746175    77.35216658    -1.00000000 ) (   -69.05089791    75.28793473    -1.00000000 ) )
    spline 1 2 ( (   -90.39738987    72.98048338    -1.00000000 ) (  -111.53569645    70.48386836    -1.00000000 ) (  -132.40233877    67.79060166    -1.00000000 ) )
    spline 2 3 ( (  -152.96334446    64.94031554    -1.00000000 ) (  -173.17405781    61.94075774    -1.00000000 ) (  -192.97198909    58.80331432    -1.00000000 ) (  -212.32274200    55.55952867    -1.00000000 ) )
    spline 3 4 ( (  -231.18043617    52.19378057    -1.00000000 ) (  -249.50182895    48.74078074    -1.00000000 ) (  -267.23388930    45.22043189    -1.00000000 ) (  -284.34979553    41.63684339    -1.00000000 ) )
    spline 4 5 ( (  -300.80399696    37.98068639    -1.00000000 ) (  -316.56223864    34.28620058    -1.00000000 ) (  -331.57097137    30.56340223    -1.00000000 ) (  -345.82186694    26.82534511    -1.00000000 ) (  -359.26184718    23.09103314    -1.00000000 ) )
    spline 5 6 ( (  -371.86687708    19.38335561    -1.00000000 ) (  -383.60913817    15.72179510    -1.00000000 ) (  -394.46038804    12.11774534    -1.00000000 ) (  -404.39479797     8.57706612    -1.00000000 ) (  -413.39036982     5.10992267    -1.00000000 ) (  -421.42576489     1.73906293    -1.00000000 ) )
    spline 6 7 ( (  -428.48022497    -1.57047459    -1.00000000 ) (  -434.53813750    -4.80705685    -1.00000000 ) )
    spline 7 8 ( (  -439.57678127    -8.11188825    -1.00000000 ) (  -443.58145395   -11.52475384    -1.00000000 ) (  -446.54467515   -15.01642206    -1.00000000 ) (  -448.46340356   -18.52454831    -1.00000000 ) )
    spline 8 9 ( (  -447.94301668   -28.45412150    -1.00000000 ) (  -445.66810022   -31.74246814    -1.00000000 ) (  -442.35613314   -34.90526768    -1.00000000 ) (  -438.01665688   -37.88083496    -1.00000000 ) )
    spline 9 10 ( (  -432.66016638   -40.64088045    -1.00000000 ) (  -426.29712476   -43.22650809    -1.00000000 ) )
    spline 10 11 ( (  -418.93536888   -45.78052375    -1.00000000 ) (  -410.59164176   -48.29299006    -1.00000000 ) )
    spline 11 12 ( (  -401.28293342   -50.80084684    -1.00000000 ) )
    spline 12 13 ( (  -391.03284346   -53.28370125    -1.00000000 ) (  -379.86431209   -55.73374317    -1.00000000 ) )
    spline 13 14 ( (  -367.80363905   -58.14784476    -1.00000000 ) )
    spline 15 16 ( (   -44.72286791   318.45459812    -1.00000000 ) (   -69.18810225   316.37451423    -1.00000000 ) (   -93.41478572   314.04806743    -1.00000000 ) )
    spline 16 17 ( (  -117.36955478   311.46004711    -1.00000000 ) (  -140.97284218   308.67172374    -1.00000000 ) (  -164.24166911   305.66926199    -1.00000000 ) )
    spline 17 18 ( (  -187.05850236   302.50613844    -1.00000000 ) (  -209.57422686   299.16433940    -1.00000000 ) (  -231.59420993   295.67527142    -1.00000000 ) (  -253.24757719   292.04453425    -1.00000000 ) )
    spline 18 19 ( (  -274.49113945   288.25348273    -1.00000000 ) (  -295.09561214   284.37016544    -1.00000000 ) (  -315.19445527   280.37949319    -1.00000000 ) (  -334.97297026   276.23712937    -1.00000000 ) )
    spline 19 20 ( (  -354.22670635   271.95934807    -1.00000000 ) (  -372.84582823   267.59320335    -1.00000000 ) (  -390.91041028   263.11195843    -1.00000000 ) (  -408.39765943   258.52400758    -1.00000000 ) (  -425.25446541   253.83975868    -1.00000000 ) )
    spline 20 21 ( (  -441.45829919   249.07234962    -1.00000000 ) (  -457.16438696   244.17228290    -1.00000000 ) (  -472.58329650   239.04683377    -1.00000000 ) (  -487.85619680   233.59749832    -1.00000000 ) (  -502.99412288   227.75575675    -1.00000000 ) (  -518.87066208   221.06642559    -1.00000000 ) )
    spline 21 22 ( (  -536.09510681   212.95000744    -1.00000000 ) (  -557.24236009   201.45412165    -1.00000000 ) )
    spline 22 23 ( (  -584.01472105   183.55887518    -1.00000000 ) (  -614.45890272   157.00090445    -1.00000000 ) (  -646.16357747   118.22131221    -1.00000000 ) (  -679.23389326    47.39192220    -1.00000000 ) )
    spline 23 24 ( (  -670.55917412  -118.13157935    -1.00000000 ) (  -630.26633370  -185.11616927    -1.00000000 ) (  -594.68176929  -220.36928191    -1.00000000 ) (  -561.62830016  -243.59948177    -1.00000000 ) )
    spline 24 25 ( (  -533.13203839  -258.59822246    -1.00000000 ) (  -510.89898469  -267.82064269    -1.00000000 ) )
    spline 25 26 ( (  -492.92050055  -274.09215353    -1.00000000 ) (  -476.43170920  -279.08528959    -1.00000000 ) )
    spline 26 27 ( (  -460.76608199  -283.31268533    -1.00000000 ) )
    spline 27 28 ( (  -445.00723758  -287.13571595    -1.00000000 ) (  -429.13703911  -290.62137242    -1.00000000 ) )
    spline 28 29 ( (  -413.00479449  -293.85286284    -1.00000000 ) )
    spline 30 31 ( (   -63.52162044   557.71722977    -1.00000000 ) (   -90.82874275   555.39686189    -1.00000000 ) (  -117.77867353   552.80820014    -1.00000000 ) )
    spline 31 32 ( (  -144.34171969   549.93961085    -1.00000000 ) (  -170.40998790   546.85957913    -1.00000000 ) (  -196.08099945   543.54792233    -1.00000000 ) )
    spline 32 33 ( (  -221.15366026   540.07196133    -1.00000000 ) (  -245.97439590   536.38792105    -1.00000000 ) (  -270.21643077   532.54722851    -1.00000000 ) (  -294.17241239   528.52953983    -1.00000000 ) )
    spline 33 34 ( (  -317.80184273   524.31318488    -1.00000000 ) (  -340.68939533   519.99955015    -1.00000000 ) (  -363.15502124   515.53855450    -1.00000000 ) (  -385.59614500   510.83741534    -1.00000000 ) )
    spline 34 35 ( (  -407.64941574   505.93800975    -1.00000000 ) (  -429.12941781   500.90020612    -1.00000000 ) (  -450.24984919   495.66051463    -1.00000000 ) (  -470.97345193   490.22267006    -1.00000000 ) (  -491.24708365   484.58848422    -1.00000000 ) )
    spline 35 36 ( (  -511.04972130   478.76134363    -1.00000000 ) (  -530.71963576   472.62277070    -1.00000000 ) (  -550.70620497   465.97592219    -1.00000000 ) (  -571.31759563   458.61793051    -1.00000000 ) (  -592.59787595   450.40159084    -1.00000000 ) (  -616.31555927   440.39378825    -1.00000000 ) )
    spline 36 37 ( (  -643.70998865   427.47048946    -1.00000000 ) (  -679.94658269   407.71530015    -1.00000000 ) )
    spline 37 38 ( (  -728.45266083   375.22963860    -1.00000000 ) (  -785.33635149   325.52656274    -1.00000000 ) (  -845.78247980   251.45904649    -1.00000000 ) (  -910.00438295   113.30839271    -1.00000000 ) )
    spline 38 39 ( (  -893.17533156  -207.80903720    -1.00000000 ) (  -814.86456717  -338.48987039    -1.00000000 ) (  -747.00740543  -405.83329614    -1.00000000 ) (  -685.23994344  -449.31812858    -1.00000000 ) )
    spline 39 40 ( (  -633.60391039  -476.55556447    -1.00000000 ) (  -595.50084462  -492.41477729    -1.00000000 ) )
    spline 40 41 ( (  -566.90563223  -502.40378330    -1.00000000 ) (  -542.27177663  -509.87758911    -1.00000000 ) )
    spline 41 42 ( (  -520.24923056  -515.82452381    -1.00000000 ) )
    spline 42 43 ( (  -498.98163169  -520.98773065    -1.00000000 ) (  -478.40976614  -525.50900166    -1.00000000 ) )
    spline 43 44 ( (  -458.20594993  -529.55788091    -1.00000000 ) )
    spline 45 46 ( (   -25.92411539    79.19196647     1.00000000 ) (   -47.54746175    77.35216658     1.00000000 ) (   -69.05089791    75.28793473     1.00000000 ) )
    spline 46 47 ( (   -90.39738987    72.98048338     1.00000000 ) (  -111.53569645    70.48386836     1.00000000 ) (  -132.40233877    67.79060166     1.00000000 ) )
    spline 47 48 ( (  -152.96334446    64.94031554     1.00000000 ) (  -173.17405781    61.94075774     1.00000000 ) (  -192.97198909    58.80331432     1.00000000 ) (  -212.32274200    55.55952867     1.00000000 ) )
    spline 48 49 ( (  -231.18043617    52.19378057     1.00000000 ) (  -249.50182895    48.74078074     1.00000000 ) (  -267.23388930    45.22043189     1.00000000 ) (  -284.34979553    41.63684339     1.00000000 ) )
    spline 49 50 ( (  -300.80399696    37.98068639     1.00000000 ) (  -316.56223864    34.28620058     1.00000000 ) (  -331.57097137    30.56340223     1.00000000 ) (  -345.82186694    26.82534511     1.00000000 ) (  -359.26184718    23.09103314     1.00000000 ) )
    spline 50 51 ( (  -371.86687708    19.38335561     1.00000000 ) (  -383.60913817    15.72179510     1.00000000 ) (  -394.46038804    12.11774534     1.00000000 ) (  -404.39479797     8.57706612     1.00000000 ) (  -413.39036982     5.10992267     1.00000000 ) (  -421.42576489     1.73906293     1.00000000 ) )
    spline 51 52 ( (  -428.48022497    -1.57047459     1.00000000 ) (  -434.53813750    -4.80705685     1.00000000 ) )
    spline 52 53 ( (  -439.57678127    -8.11188825     1.00000000 ) (  -443.58145395   -11.52475384     1.00000000 ) (  -446.54467515   -15.01642206     1.00000000 ) (  -448.46340356   -18.52454831     1.00000000 ) )
    spline 53 54 ( (  -447.94301668   -28.45412150     1.00000000 ) (  -445.66810022   -31.74246814     1.00000000 ) (  -442.35613314   -34.90526768     1.00000000 ) (  -438.01665688   -37.88083496     1.00000000 ) )
    spline 54 55 ( (  -432.66016638   -40.64088045     1.00000000 ) (  -426.29712476   -43.22650809     1.00000000 ) )
    spline 55 56 ( (  -418.93536888   -45.78052375     1.00000000 ) (  -410.59164176   -48.29299006     1.00000000 ) )
    spline 56 57 ( (  -401.28293342   -50.80084684     1.00000000 ) )
    spline 57 58 ( (  -391.03284346   -53.28370125     1.00000000 ) (  -379.86431209   -55.73374317     1.00000000 ) )
    spline 58 59 ( (  -367.80363905   -58.14784476     1.00000000 ) )
    spline 60 61 ( (   -44.72286791   318.45459812     1.00000000 ) (   -69.18810225   316.37451423     1.00000000 ) (   -93.41478572   314.04806743     1.00000000 ) )
    spline 61 62 ( (  -117.36955478   311.46004711     1.00000000 ) (  -140.97284218   308.67172374     1.00000000 ) (  -164.24166911   305.66926199     1.00000000 ) )
    spline 62 63 ( (  -187.05850236   302.50613844     1.00000000 ) (  -209.57422686   299.16433940     1.00000000 ) (  -231.59420993   295.67527142     1.00000000 ) (  -253.24757719   292.04453425     1.00000000 ) )
    spline 63 64 ( (  -274.49113945   288.25348273     1.00000000 ) (  -295.09561214   284.37016544     1.00000000 ) (  -315.19445527   280.37949319     1.00000000 ) (  -334.97297026   276.23712937     1.00000000 ) )
    spline 64 65 ( (  -354.22670635   271.95934807     1.00000000 ) (  -372.84582823   267.59320335     1.00000000 ) (  -390.91041028   263.11195843     1.00000000 ) (  -408.39765943   258.52400758     1.00000000 ) (  -425.25446541   253.83975868     1.00000000 ) )
    spline 65 66 ( (  -441.45829919   249.07234962     1.00000000 ) (  -457.16438696   244.17228290     1.00000000 ) (  -472.58329650   239.04683377     1.00000000 ) (  -487.85619680   233.59749832     1.00000000 ) (  -502.99412288   227.75575675     1.00000000 ) (  -518.87066208   221.06642559     1.00000000 ) )
    spline 66 67 ( (  -536.09510681   212.95000744     1.00000000 ) (  -557.24236009   201.45412165     1.00000000 ) )
    spline 67 68 ( (  -584.01472105   183.55887518     1.00000000 ) (  -614.45890272   157.00090445     1.00000000 ) (  -646.16357747   118.22131221     1.00000000 ) (  -679.23389326    47.39192220     1.00000000 ) )
    spline 68 69 ( (  -670.55917412  -118.13157935     1.00000000 ) (  -630.26633370  -185.11616927     1.00000000 ) (  -594.68176929  -220.36928191     1.00000000 ) (  -561.62830016  -243.59948177     1.00000000 ) )
    spline 69 70 ( (  -533.13203839  -258.59822246     1.00000000 ) (  -510.89898469  -267.82064269     1.00000000 ) )
    spline 70 71 ( (  -492.92050055  -274.09215353     1.00000000 ) (  -476.43170920  -279.08528959     1.00000000 ) )
    spline 71 72 ( (  -460.76608199  -283.31268533     1.00000000 ) )
    spline 72 73 ( (  -445.00723758  -287.13571595     1.00000000 ) (  -429.13703911  -290.62137242     1.00000000 ) )
    spline 73 74 ( (  -413.00479449  -293.85286284     1.00000000 ) )
    spline 75 76 ( (   -63.52162044   557.71722977     1.00000000 ) (   -90.82874275   555.39686189     1.00000000 ) (  -117.77867353   552.80820014     1.00000000 ) )
    spline 76 77 ( (  -144.34171969   549.93961085     1.00000000 ) (  -170.40998790   546.85957913     1.00000000 ) (  -196.08099945   543.54792233     1.00000000 ) )
    spline 77 78 ( (  -221.15366026   540.07196133     1.00000000 ) (  -245.97439590   536.38792105     1.00000000 ) (  -270.21643077   532.54722851     1.00000000 ) (  -294.17241239   528.52953983     1.00000000 ) )
    spline 78 79 ( (  -317.80184273   524.31318488     1.00000000 ) (  -340.68939533   519.99955015     1.00000000 ) (  -363.15502124   515.53855450     1.00000000 ) (  -385.59614500   510.83741534     1.00000000 ) )
    spline 79 80 ( (  -407.64941574   505.93800975     1.00000000 ) (  -429.12941781   500.90020612     1.00000000 ) (  -450.24984919   495.66051463     1.00000000 ) (  -470.97345193   490.22267006     1.00000000 ) (  -491.24708365   484.58848422     1.00000000 ) )
    spline 80 81 ( (  -511.04972130   478.76134363     1.00000000 ) (  -530.71963576   472.62277070     1.00000000 ) (  -550.70620497   465.97592219     1.00000000 ) (  -571.31759563   458.61793051     1.00000000 ) (  -592.59787595   450.40159084     1.00000000 ) (  -616.31555927   440.39378825     1.00000000 ) )
    spline 81 82 ( (  -643.70998865   427.47048946     1.00000000 ) (  -679.94658269   407.71530015     1.00000000 ) )
    spline 82 83 ( (  -728.45266083   375.22963860     1.00000000 ) (  -785.33635149   325.52656274     1.00000000 ) (  -845.78247980   251.45904649     1.00000000 ) (  -910.00438295   113.30839271     1.00000000 ) )
    spline 83 84 ( (  -893.17533156  -207.80903720     1.00000000 ) (  -814.86456717  -338.48987039     1.00000000 ) (  -747.00740543  -405.83329614     1.00000000 ) (  -685.23994344  -449.31812858     1.00000000 ) )
    spline 84 85 ( (  -633.60391039  -476.55556447     1.00000000 ) (  -595.50084462  -492.41477729     1.00000000 ) )
    spline 85 86 ( (  -566.90563223  -502.40378330     1.00000000 ) (  -542.27177663  -509.87758911     1.00000000 ) )
    spline 86 87 ( (  -520.24923056  -515.82452381     1.00000000 ) )
    spline 87 88 ( (  -498.98163169  -520.98773065     1.00000000 ) (  -478.40976614  -525.50900166     1.00000000 ) )
    spline 88 89 ( (  -458.20594993  -529.55788091     1.00000000 ) )
);

boundary
(
    airfoil
    {
        type wall;
        faces
        (
            (0 45 46 1)
            (1 46 47 2)
            (2 47 48 3)
            (3 48 49 4)
            (4 49 50 5)
            (5 50 51 6)
            (6 51 52 7)
            (7 52 53 8)
            (8 53 54 9)
            (9 54 55 10)
            (10 55 56 11)
            (11 56 57 12)
            (12 57 58 13)
            (13 58 59 14)
        );
    }

    farfield
    {
        type patch;
        faces
        (
            (30 31 76 75)
            (31 32 77 76)
            (32 33 78 77)
            (33 34 79 78)
            (34 35 80 79)
            (35 36 81 80)
            (36 37 82 81)
            (37 38 83 82)
            (38 39 84 83)
            (39 40 85 84)
            (40 41 86 85)
            (41 42 87 86)
            (42 43 88 87)
            (43 44 89 88)
        );
    }

    suctionOutlet
    {
        type patch;
        faces
        (
            (0 15 60 45)
            (15 30 75 60)
        );
    }

    pressureOutlet
    {
        type patch;
        faces
        (
            (14 29 74 59)
            (29 44 89 74)
        );
    }

    front
    {
        type empty;
        faces
        (
            (0 1 16 15)
            (15 16 31 30)
            (1 2 17 16)
            (16 17 32 31)
            (2 3 18 17)
            (17 18 33 32)
            (3 4 19 18)
            (18 19 34 33)
            (4 5 20 19)
            (19 20 35 34)
            (5 6 21 20)
            (20 21 36 35)
            (6 7 22 21)
            (21 22 37 36)
            (7 8 23 22)
            (22 23 38 37)
            (8 9 24 23)
            (23 24 39 38)
            (9 10 25 24)
            (24 25 40 39)
            (10 11 26 25)
            (25 26 41 40)
            (11 12 27 26)
            (26 27 42 41)
            (12 13 28 27)
            (27 28 43 42)
            (13 14 29 28)
            (28 29 44 43)
        );
    }

    back
    {
        type empty;
        faces
        (
            (45 46 61 60)
            (60 61 76 75)
            (46 47 62 61)
            (61 62 77 76)
            (47 48 63 62)
            (62 63 78 77)
            (48 49 64 63)
            (63 64 79 78)
            (49 50 65 64)
            (64 65 80 79)
            (50 51 66 65)
            (65 66 81 80)
            (51 52 67 66)
            (66 67 82 81)
            (52 53 68 67)
            (67 68 83 82)
            (53 54 69 68)
            (68 69 84 83)
            (54 55 70 69)
            (69 70 85 84)
            (55 56 71 70)
            (70 71 86 85)
            (56 57 72 71)
            (71 72 87 86)
            (57 58 73 72)
            (72 73 88 87)
            (58 59 74 73)
            (73 74 89 88)
        );
    }

);

mergePatchPairs
(
);

// ********************************************************** //
