/*--------------------------------*- C++ -*----------------------------------*\
| =========                 |                                                 |
| \\      /  F ield         | OpenFOAM: The Open Source CFD Toolbox           |
|  \\    /   O peration     | Version:  1.6                                   |
|   \\  /    A nd           | Web:      www.OpenFOAM.org                      |
|    \\/     M anipulation  |                                                 |
\*---------------------------------------------------------------------------*/
FoamFile
{
    version     2.0;
    format      ascii;
    class       dictionary;
    location    "system";
    object      controlDict;
}
// * * * * * * * * * * * * * * * * * * * * * * * * * * * * * * * * * * * * * //

application     simpleFoam;

startFrom       startTime;

startTime       0;

stopAt          endTime;

endTime         10000;

deltaT          1;

writeControl    timeStep;

writeInterval   100;

purgeWrite      0;

writeFormat     ascii;

writePrecision  6;

writeCompression off;

timeFormat      general;

timePrecision   6;

runTimeModifiable true;

functions
{ 
    solverInfo
    {
        type  solverInfo;
        libs  ("libutilityFunctionObjects.so");
        writeControl  timeStep;   // write every SIMPLE iteration
        writeInterval 1;

        fields (U p);             // track these fields' residuals
    }

    //wallShearStress
    //{
    //type                 wallShearStress;
    //libs                 ("libfieldFunctionObjects.so");
    //executeControl       writeTime;
    //writeControl         writeTime;
    //}

    //wallPressure
    //{
    //type                 surfaces;
    //functionObjectLibs   ("libsampling.so");
    //outputControl        outputTime;
    //surfaceFormat        foam;
    //interpolationScheme  cell;

    //fields (p);
    //surfaces
    //(
    // flatPlate
    //{
    // type patch;
    // patches (flatPlate);
    // interpolate true;
    // triangulate false;
    //}
    // upperWall
    //{
    // type patch;
    // patches (upperWall);
    // interpolate true;
    // triangulate false;
    //}
    //);
    //}

    writeMidPlane
    {
        type            coded;
        libs            ("libutilityFunctionObjects.so");
        name            writeMidPlane;
        executeControl  writeTime;
        writeControl    none;

        codeInclude
        #{
            #include "OFstream.H"
            #include <fstream>
            #include <cmath>
        #};

        codeExecute
        #{
            const fvMesh& mesh = refCast<const fvMesh>(obr_);
            const volVectorField& U =
                mesh.lookupObject<volVectorField>("U");
            const volScalarField& p =
                mesh.lookupObject<volScalarField>("p");
            const vectorField& C = mesh.C();

            // ── Read parameters from inputParam ──
            IOdictionary inputParam
            (
                IOobject
                (
                    "inputParam", "constant", mesh,
                    IOobject::MUST_READ, IOobject::NO_WRITE
                )
            );
            const dictionary& d = inputParam.subDict("Upinlet");
            const word fmt      = d.lookupOrDefault<word>("outputFormat", "csv");
            const word mode     = d.lookupOrDefault<word>("exportMode", "full");

            // ── Mid-plane cell selection ──
            // nz=2, zWidth=2mm → cell center at z=0.0005 m
            const scalar zTarget = 0.0005;
            const scalar zTol    = 0.0003;

            DynamicList<label> midCells;
            forAll(C, cellI)
            {
                if (mag(C[cellI].z() - zTarget) < zTol)
                {
                    midCells.append(cellI);
                }
            }

            // ── Final cell list (full or partial) ──
            DynamicList<label> cells;

            if (mode == "partial")
            {
                // Read partial-export parameters
                const scalar xiInlet_   = d.lookupOrDefault<scalar>("xiInlet", 0.01);
                const scalar xiOutlet_  = d.lookupOrDefault<scalar>("xiOutlet", 0.10);
                const scalar expHeight  = d.lookupOrDefault<scalar>("exportHeight", 10.0);
                const scalar chord_     = d.lookupOrDefault<scalar>("chord", 900.0);
                const scalar alphaDeg_  = d.lookupOrDefault<scalar>("alphaDeg", -3.0);
                const scalar xCtr       = d.lookupOrDefault<scalar>("xCenter", 0.0);
                const scalar yCtr       = d.lookupOrDefault<scalar>("yCenter", 0.0);

                const scalar expHeightM = expHeight * 0.001;  // mm → m
                const scalar chordM     = chord_ * 0.001;     // mm → m
                const scalar xCtrM      = xCtr * 0.001;
                const scalar yCtrM      = yCtr * 0.001;

                // ── Embedded M3J upper-surface data (65 points) ──
                static const int N_PTS = 65;
                static const double XI_D[65] = {
                    0.0,      0.001313, 0.003646, 0.007137, 0.011779,
                    0.017562, 0.024472, 0.032492, 0.041604, 0.051787,
                    0.063016, 0.075266, 0.088508, 0.10271,  0.11784,
                    0.13387,  0.15074,  0.16844,  0.18691,  0.20611,
                    0.22599,  0.24652,  0.26764,  0.2893,   0.31145,
                    0.33405,  0.35703,  0.38034,  0.40394,  0.42776,
                    0.45174,  0.47584,  0.5,      0.52416,  0.54826,
                    0.57224,  0.59606,  0.61966,  0.64297,  0.66595,
                    0.68855,  0.7107,   0.73236,  0.75348,  0.77401,
                    0.79389,  0.81309,  0.83156,  0.84926,  0.86613,
                    0.88216,  0.89729,  0.91149,  0.92473,  0.93698,
                    0.94821,  0.9584,   0.96751,  0.97553,  0.98244,
                    0.98822,  0.99286,  0.99635,  0.99869,  1.0
                };
                static const double ETA_D[65] = {
                    0.0,      0.005524, 0.009305, 0.013007, 0.016561,
                    0.019935, 0.023174, 0.026436, 0.029709, 0.033033,
                    0.036384, 0.039752, 0.043132, 0.046513, 0.049875,
                    0.053194, 0.056452, 0.059635, 0.062735, 0.065716,
                    0.068591, 0.071357, 0.073995, 0.076469, 0.078799,
                    0.080952, 0.082919, 0.084694, 0.086235, 0.087554,
                    0.088594, 0.089378, 0.089851, 0.09002,  0.089814,
                    0.08923,  0.088209, 0.086598, 0.084245, 0.080977,
                    0.077081, 0.07263,  0.067808, 0.062635, 0.057286,
                    0.051831, 0.046364, 0.040993, 0.035807, 0.03088,
                    0.026254, 0.021944, 0.017969, 0.014393, 0.011285,
                    0.00868,  0.006551, 0.004917, 0.003622, 0.002599,
                    0.001744, 0.001056, 0.00054,  0.000194, 0.0
                };

                // ── Geometry helper lambdas ──
                // Linear interpolation in sorted table
                auto interp1 = [](const double* xd, const double* yd,
                                  int n, double xq) -> double
                {
                    if (xq <= xd[0])   return yd[0];
                    if (xq >= xd[n-1]) return yd[n-1];
                    for (int i = 0; i < n - 1; ++i)
                    {
                        if (xd[i] <= xq && xq <= xd[i+1])
                        {
                            double t = (xq - xd[i]) / (xd[i+1] - xd[i]);
                            return (1.0 - t) * yd[i] + t * yd[i+1];
                        }
                    }
                    return yd[n-1];
                };

                auto etaUpper = [&](double xi) -> double
                {
                    return interp1(XI_D, ETA_D, N_PTS, xi);
                };

                // Transform (xi, eta) → global (x, y) in metres
                auto toGlobal = [&](double xi, double eta,
                                    double& xOut, double& yOut)
                {
                    double alpha = alphaDeg_ * M_PI / 180.0;
                    double ca = std::cos(alpha);
                    double sa = std::sin(alpha);
                    double Xp = xi  * chordM - 0.5 * chordM;
                    double Yp = eta * chordM;
                    double Xr =  ca * Xp + sa * Yp;
                    double Yr = -sa * Xp + ca * Yp;
                    xOut = xCtrM + Xr;
                    yOut = yCtrM + Yr;
                };

                // Outward surface normal on upper surface at xi
                auto surfaceNormal = [&](double xi, double& nx, double& ny)
                {
                    double delta = 1e-5;
                    double x0, y0, x1, y1;
                    toGlobal(std::max(0.0, xi - delta),
                             etaUpper(std::max(0.0, xi - delta)), x0, y0);
                    toGlobal(std::min(1.0, xi + delta),
                             etaUpper(std::min(1.0, xi + delta)), x1, y1);
                    double tx = x1 - x0;
                    double ty = y1 - y0;
                    // +90° rotation for upper surface outward normal
                    nx = -ty;
                    ny =  tx;
                    double mag = std::sqrt(nx*nx + ny*ny);
                    if (mag < 1e-15) { nx = 0.0; ny = 1.0; return; }
                    nx /= mag;
                    ny /= mag;
                };

                // ── Compute inlet boundary (normal line at xiInlet) ──
                double pInX, pInY, nInX, nInY;
                toGlobal(xiInlet_, etaUpper(xiInlet_), pInX, pInY);
                surfaceNormal(xiInlet_, nInX, nInY);
                // Tangent toward increasing xi
                double tInX =  nInY;
                double tInY = -nInX;

                // ── Compute outlet boundary (normal line at xiOutlet) ──
                double pOutX, pOutY, nOutX, nOutY;
                toGlobal(xiOutlet_, etaUpper(xiOutlet_), pOutX, pOutY);
                surfaceNormal(xiOutlet_, nOutX, nOutY);
                double tOutX =  nOutY;
                double tOutY = -nOutX;

                // ── Get airfoil patch face centres & normals ──
                label patchID = mesh.boundaryMesh().findPatchID("airfoil");
                if (patchID < 0)
                {
                    FatalErrorInFunction
                        << "Patch 'airfoil' not found!" << abort(FatalError);
                }
                const polyPatch& pp = mesh.boundaryMesh()[patchID];
                const vectorField faceCentres(pp.faceCentres());
                const vectorField faceNormals(pp.faceNormals());

                // ── Filter mid-plane cells ──
                forAll(midCells, i)
                {
                    const label ci = midCells[i];
                    double cx = C[ci].x();
                    double cy = C[ci].y();

                    // (a) Downstream of inlet: dot(X - P_in, T_in) >= 0
                    double dotIn = (cx - pInX)*tInX + (cy - pInY)*tInY;
                    if (dotIn < 0) continue;

                    // (b) Upstream of outlet: dot(X - P_out, T_out) <= 0
                    double dotOut = (cx - pOutX)*tOutX + (cy - pOutY)*tOutY;
                    if (dotOut > 0) continue;

                    // (c) Distance to nearest airfoil face & suction-side check
                    double minDist = GREAT;
                    vector nearestNormal(0, 0, 0);
                    vector nearestFc(0, 0, 0);
                    forAll(faceCentres, fi)
                    {
                        // Only consider faces near the mid-plane
                        if (mag(faceCentres[fi].z() - zTarget) > zTol) continue;
                        double dx = cx - faceCentres[fi].x();
                        double dy = cy - faceCentres[fi].y();
                        double dist = std::sqrt(dx*dx + dy*dy);
                        if (dist < minDist)
                        {
                            minDist = dist;
                            nearestNormal = faceNormals[fi];
                            nearestFc = faceCentres[fi];
                        }
                    }

                    if (minDist > expHeightM) continue;

                    // Suction side check: OpenFOAM boundary face normals
                    // point OUT of the fluid domain (into the wall).
                    // For fluid cells, toCell opposes faceNormal (dot < 0).
                    // Skip cells inside the body (dot > 0, shouldn't happen)
                    // and cells whose nearest face is on the pressure (lower)
                    // side: lower-surface normals point upward into the
                    // airfoil, so their y-component (flipped = outward from
                    // airfoil) is negative → skip those.
                    vector toCell = C[ci] - nearestFc;
                    if ((toCell & nearestNormal) > 0) continue;
                    // -nearestNormal = outward from airfoil; for upper-surface
                    // faces this points generally upward (positive y)
                    if (-nearestNormal.y() < 0) continue;

                    cells.append(ci);
                }

                Info<< "writeMidPlane: partial mode — "
                    << "xiInlet=" << xiInlet_ << " xiOutlet=" << xiOutlet_
                    << " exportHeight=" << expHeight << " mm"
                    << " → " << cells.size() << " cells selected" << endl;
            }
            else
            {
                // Full mode: all mid-plane cells
                cells = midCells;
            }

            // ── Write output ──
            const fileName outDir =
                mesh.time().globalPath()/"postProcessing";
            mkDir(outDir);

            if (fmt == "binary")
            {
                const fileName fpath = outDir/"midPlane.bin";
                std::ofstream ofs(fpath, std::ios::binary);

                int32_t nCols = 7;
                int64_t nRows = cells.size();
                ofs.write(reinterpret_cast<const char*>(&nCols), sizeof(nCols));
                ofs.write(reinterpret_cast<const char*>(&nRows), sizeof(nRows));

                forAll(cells, i)
                {
                    const label ci = cells[i];
                    double row[7] =
                    {
                        C[ci].x(), C[ci].y(), C[ci].z(),
                        U[ci].x(), U[ci].y(), U[ci].z(),
                        p[ci]
                    };
                    ofs.write(reinterpret_cast<const char*>(row), sizeof(row));
                }

                Info<< "writeMidPlane: wrote " << nRows
                    << " cells (binary) to " << fpath << endl;
            }
            else
            {
                OFstream os(outDir/"midPlane.csv");
                os.precision(10);
                os << "x,y,z,u,v,w,p" << nl;

                forAll(cells, i)
                {
                    const label ci = cells[i];
                    os  << C[ci].x() << ","
                        << C[ci].y() << ","
                        << C[ci].z() << ","
                        << U[ci].x() << ","
                        << U[ci].y() << ","
                        << U[ci].z() << ","
                        << p[ci] << nl;
                }

                Info<< "writeMidPlane: wrote " << cells.size()
                    << " cells (csv) to " << os.name() << endl;
            }
        #};
    }
}

// ************************************************************************* //
