/*--------------------------------*- C++ -*----------------------------------*\
| =========                 |                                                 |
| \\      /  F ield         | OpenFOAM: The Open Source CFD Toolbox           |
|  \\    /   O peration     | Version:  v2312                                 |
|   \\  /    A nd           | Website:  www.openfoam.com                      |
|    \\/     M anipulation  |                                                 |
\*---------------------------------------------------------------------------*/

FoamFile
{
    version         2.0;
    format          ascii;
    class           dictionary;
    location        system;
    object          inputDomain;
}

// * * * * * * * * * * * * * * * * * * * * * * * * * * * * * * * * * * * * //

airfoilCharacteristics
{
    chord           900;        // physical chord [mm]
    alphaDeg        -3.0;       // angle of attack [deg]
    xAirfoilCenter  0.0;        // global x of mid-chord pivot [mm]
    yAirfoilCenter  0.0;        // global y of mid-chord pivot [mm]
}

domainSize
{
    // Grid extent along the chord (dimensionless, x/c)
    xiArch              0.02;   // x/c separating arch from straight sections
    xiSuctionOutlet     0.50;   // suction (upper) outlet position
    xiPressureOutlet    0.08;   // pressure (lower) outlet position

    // Wall-normal (radial) band heights [mm]
    hBL                  280;    // boundary-layer band height along normal
    hFar                 280;    // far-field band height along normal

    // Spanwise extent [mm]
    zWidth              2;

    // Number of segments (blocks) along the C-path in each section
    nSegSuction         6;      // suction outlet  → xiArch  (upper)
    nSegArchUp          2;      // xiArch          → LE      (upper)
    nSegArchLo          2;      // LE              → xiArch  (lower)
    nSegPressure        2;      // xiArch          → pressure outlet (lower)

    // Station distribution
    cosineArch          true;   // cosine clustering in the arch region
}

gridResolution
{
    // Total streamwise cells (distributed proportional to arc length)
    nxTotal             800; //400

    // Cells in the wall-normal direction
    nyBL                600; //300    // cells in y in boundary-layer blocks
    // nyFar is auto-computed to match the BL outer cell size

    // Cells in the spanwise direction
    nz                  2;

    // Cell grading
    gradBL              200.0; //60   // BL blocks: expansion toward the wall
    // gradFar is auto-computed (uniform) to match at BL-farfield interface
    gradArch            18.0; //18   // arch: boundary cell / LE cell (clusters toward LE)
}

// *********************************************************************** //
