/*--------------------------------*- C++ -*----------------------------------*\
| =========                 |                                                 |
| \\      /  F ield         | OpenFOAM: The Open Source CFD Toolbox           |
|  \\    /   O peration     | Version:  2412                                  |
|   \\  /    A nd           | Website:  www.openfoam.com                      |
|    \\/     M anipulation  |                                                 |
\*---------------------------------------------------------------------------*/
FoamFile
{
    version     2.0;
    format      ascii;
    arch        "LSB;label=32;scalar=64";
    class       extendedFeatureEdgeMesh;
    location    "constant/extendedFeatureEdgeMesh";
    object      airfoil.extendedFeatureEdgeMesh;
}
// * * * * * * * * * * * * * * * * * * * * * * * * * * * * * * * * * * * * * //

// points

256
(
(3.031e-17 0.495 0.009)
(3.031e-17 0.495 -0.009)
(-0.0001746 0.493821 0.009)
(-0.0001746 0.493821 -0.009)
(-0.000486 0.491715 0.009)
(-0.000486 0.491715 -0.009)
(-0.0009504 0.488574 0.009)
(-0.0009504 0.488574 -0.009)
(-0.0015696 0.484398 0.009)
(-0.0015696 0.484398 -0.009)
(-0.0023391 0.479196 0.009)
(-0.0023391 0.479196 -0.009)
(-0.0032598 0.472977 0.009)
(-0.0032598 0.472977 -0.009)
(-0.0044253 0.465759 0.009)
(-0.0044253 0.465759 -0.009)
(-0.0058959 0.45756 0.009)
(-0.0058959 0.45756 -0.009)
(-0.007812 0.448389 0.009)
(-0.007812 0.448389 -0.009)
(-0.0101565 0.438282 0.009)
(-0.0101565 0.438282 -0.009)
(-0.0129537 0.427257 0.009)
(-0.0129537 0.427257 -0.009)
(-0.0161721 0.415341 0.009)
(-0.0161721 0.415341 -0.009)
(-0.0197496 0.402561 0.009)
(-0.0197496 0.402561 -0.009)
(-0.0236286 0.388944 0.009)
(-0.0236286 0.388944 -0.009)
(-0.027792 0.374517 0.009)
(-0.027792 0.374517 -0.009)
(-0.0322263 0.359334 0.009)
(-0.0322263 0.359334 -0.009)
(-0.0368937 0.343404 0.009)
(-0.0368937 0.343404 -0.009)
(-0.0417276 0.326781 0.009)
(-0.0417276 0.326781 -0.009)
(-0.0466479 0.309501 0.009)
(-0.0466479 0.309501 -0.009)
(-0.0515574 0.291609 0.009)
(-0.0515574 0.291609 -0.009)
(-0.0563715 0.273132 0.009)
(-0.0563715 0.273132 -0.009)
(-0.0610272 0.254124 0.009)
(-0.0610272 0.254124 -0.009)
(-0.065367 0.23463 0.009)
(-0.065367 0.23463 -0.009)
(-0.0693729 0.214695 0.009)
(-0.0693729 0.214695 -0.009)
(-0.0728793 0.194355 0.009)
(-0.0728793 0.194355 -0.009)
(-0.0758205 0.173673 0.009)
(-0.0758205 0.173673 -0.009)
(-0.0779382 0.152694 0.009)
(-0.0779382 0.152694 -0.009)
(-0.0793881 0.131454 0.009)
(-0.0793881 0.131454 -0.009)
(-0.080307 0.110016 0.009)
(-0.080307 0.110016 -0.009)
(-0.0808326 0.088434 0.009)
(-0.0808326 0.088434 -0.009)
(-0.081018 0.066744 0.009)
(-0.081018 0.066744 -0.009)
(-0.0808659 0.045 0.009)
(-0.0808659 0.045 -0.009)
(-0.0804402 0.023256 0.009)
(-0.0804402 0.023256 -0.009)
(-0.0797346 0.001566 0.009)
(-0.0797346 0.001566 -0.009)
(-0.0787986 -0.020016 0.009)
(-0.0787986 -0.020016 -0.009)
(-0.0776115 -0.041454 0.009)
(-0.0776115 -0.041454 -0.009)
(-0.0762246 -0.062694 0.009)
(-0.0762246 -0.062694 -0.009)
(-0.0746271 -0.083673 0.009)
(-0.0746271 -0.083673 -0.009)
(-0.0728568 -0.104355 0.009)
(-0.0728568 -0.104355 -0.009)
(-0.0709191 -0.124695 0.009)
(-0.0709191 -0.124695 -0.009)
(-0.0688221 -0.14463 0.009)
(-0.0688221 -0.14463 -0.009)
(-0.0665955 -0.164124 0.009)
(-0.0665955 -0.164124 -0.009)
(-0.0642213 -0.183132 0.009)
(-0.0642213 -0.183132 -0.009)
(-0.0617319 -0.201609 0.009)
(-0.0617319 -0.201609 -0.009)
(-0.0591444 -0.219501 0.009)
(-0.0591444 -0.219501 -0.009)
(-0.0564615 -0.236781 0.009)
(-0.0564615 -0.236781 -0.009)
(-0.0536715 -0.253404 0.009)
(-0.0536715 -0.253404 -0.009)
(-0.0508068 -0.269334 0.009)
(-0.0508068 -0.269334 -0.009)
(-0.0478746 -0.284517 0.009)
(-0.0478746 -0.284517 -0.009)
(-0.0448875 -0.298944 0.009)
(-0.0448875 -0.298944 -0.009)
(-0.0418617 -0.312561 0.009)
(-0.0418617 -0.312561 -0.009)
(-0.0388188 -0.325343 0.009)
(-0.0388188 -0.325343 -0.009)
(-0.0357768 -0.337261 0.009)
(-0.0357768 -0.337261 -0.009)
(-0.0327456 -0.348286 0.009)
(-0.0327456 -0.348286 -0.009)
(-0.0297297 -0.358392 0.009)
(-0.0297297 -0.358392 -0.009)
(-0.0267381 -0.367556 0.009)
(-0.0267381 -0.367556 -0.009)
(-0.0237924 -0.375757 0.009)
(-0.0237924 -0.375757 -0.009)
(-0.0208566 -0.382975 0.009)
(-0.0208566 -0.382975 -0.009)
(-0.0179415 -0.389194 0.009)
(-0.0179415 -0.389194 -0.009)
(-0.0149049 -0.394399 0.009)
(-0.0149049 -0.394399 -0.009)
(-0.0117063 -0.398577 0.009)
(-0.0117063 -0.398577 -0.009)
(-0.0083745 -0.401719 0.009)
(-0.0083745 -0.401719 -0.009)
(-0.0049716 -0.403818 0.009)
(-0.0049716 -0.403818 -0.009)
(-2.47991e-17 -0.405 0.009)
(-2.47991e-17 -0.405 -0.009)
(0.0049716 -0.403818 0.009)
(0.0049716 -0.403818 -0.009)
(0.0083745 -0.401719 0.009)
(0.0083745 -0.401719 -0.009)
(0.0117063 -0.398577 0.009)
(0.0117063 -0.398577 -0.009)
(0.0149049 -0.394399 0.009)
(0.0149049 -0.394399 -0.009)
(0.0179415 -0.389194 0.009)
(0.0179415 -0.389194 -0.009)
(0.0208566 -0.382975 0.009)
(0.0208566 -0.382975 -0.009)
(0.0237924 -0.375757 0.009)
(0.0237924 -0.375757 -0.009)
(0.0267381 -0.367556 0.009)
(0.0267381 -0.367556 -0.009)
(0.0297297 -0.358392 0.009)
(0.0297297 -0.358392 -0.009)
(0.0327456 -0.348286 0.009)
(0.0327456 -0.348286 -0.009)
(0.0357768 -0.337261 0.009)
(0.0357768 -0.337261 -0.009)
(0.0388188 -0.325343 0.009)
(0.0388188 -0.325343 -0.009)
(0.0418617 -0.312561 0.009)
(0.0418617 -0.312561 -0.009)
(0.0448875 -0.298944 0.009)
(0.0448875 -0.298944 -0.009)
(0.0478746 -0.284517 0.009)
(0.0478746 -0.284517 -0.009)
(0.0508068 -0.269334 0.009)
(0.0508068 -0.269334 -0.009)
(0.0536715 -0.253404 0.009)
(0.0536715 -0.253404 -0.009)
(0.0564615 -0.236781 0.009)
(0.0564615 -0.236781 -0.009)
(0.0591444 -0.219501 0.009)
(0.0591444 -0.219501 -0.009)
(0.0617319 -0.201609 0.009)
(0.0617319 -0.201609 -0.009)
(0.0642213 -0.183132 0.009)
(0.0642213 -0.183132 -0.009)
(0.0665955 -0.164124 0.009)
(0.0665955 -0.164124 -0.009)
(0.0688221 -0.14463 0.009)
(0.0688221 -0.14463 -0.009)
(0.0709191 -0.124695 0.009)
(0.0709191 -0.124695 -0.009)
(0.0728568 -0.104355 0.009)
(0.0728568 -0.104355 -0.009)
(0.0746271 -0.083673 0.009)
(0.0746271 -0.083673 -0.009)
(0.0762246 -0.062694 0.009)
(0.0762246 -0.062694 -0.009)
(0.0776115 -0.041454 0.009)
(0.0776115 -0.041454 -0.009)
(0.0787986 -0.020016 0.009)
(0.0787986 -0.020016 -0.009)
(0.0797346 0.001566 0.009)
(0.0797346 0.001566 -0.009)
(0.0804402 0.023256 0.009)
(0.0804402 0.023256 -0.009)
(0.0808659 0.045 0.009)
(0.0808659 0.045 -0.009)
(0.081018 0.066744 0.009)
(0.081018 0.066744 -0.009)
(0.0808326 0.088434 0.009)
(0.0808326 0.088434 -0.009)
(0.080307 0.110016 0.009)
(0.080307 0.110016 -0.009)
(0.0793881 0.131454 0.009)
(0.0793881 0.131454 -0.009)
(0.0779382 0.152694 0.009)
(0.0779382 0.152694 -0.009)
(0.0758205 0.173673 0.009)
(0.0758205 0.173673 -0.009)
(0.0728793 0.194355 0.009)
(0.0728793 0.194355 -0.009)
(0.0693729 0.214695 0.009)
(0.0693729 0.214695 -0.009)
(0.065367 0.23463 0.009)
(0.065367 0.23463 -0.009)
(0.0610272 0.254124 0.009)
(0.0610272 0.254124 -0.009)
(0.0563715 0.273132 0.009)
(0.0563715 0.273132 -0.009)
(0.0515574 0.291609 0.009)
(0.0515574 0.291609 -0.009)
(0.0466479 0.309501 0.009)
(0.0466479 0.309501 -0.009)
(0.0417276 0.326781 0.009)
(0.0417276 0.326781 -0.009)
(0.0368937 0.343404 0.009)
(0.0368937 0.343404 -0.009)
(0.0322263 0.359334 0.009)
(0.0322263 0.359334 -0.009)
(0.027792 0.374517 0.009)
(0.027792 0.374517 -0.009)
(0.0236286 0.388944 0.009)
(0.0236286 0.388944 -0.009)
(0.0197496 0.402561 0.009)
(0.0197496 0.402561 -0.009)
(0.0161721 0.415341 0.009)
(0.0161721 0.415341 -0.009)
(0.0129537 0.427257 0.009)
(0.0129537 0.427257 -0.009)
(0.0101565 0.438282 0.009)
(0.0101565 0.438282 -0.009)
(0.007812 0.448389 0.009)
(0.007812 0.448389 -0.009)
(0.0058959 0.45756 0.009)
(0.0058959 0.45756 -0.009)
(0.0044253 0.465759 0.009)
(0.0044253 0.465759 -0.009)
(0.0032598 0.472977 0.009)
(0.0032598 0.472977 -0.009)
(0.0023391 0.479196 0.009)
(0.0023391 0.479196 -0.009)
(0.0015696 0.484398 0.009)
(0.0015696 0.484398 -0.009)
(0.0009504 0.488574 0.009)
(0.0009504 0.488574 -0.009)
(0.000486 0.491715 0.009)
(0.000486 0.491715 -0.009)
(0.0001746 0.493821 0.009)
(0.0001746 0.493821 -0.009)
)

// edges

257
(
(2 0)
(0 1)
(1 3)
(4 2)
(3 5)
(6 4)
(5 7)
(8 6)
(7 9)
(10 8)
(9 11)
(12 10)
(11 13)
(14 12)
(13 15)
(16 14)
(15 17)
(18 16)
(17 19)
(20 18)
(19 21)
(22 20)
(21 23)
(24 22)
(23 25)
(26 24)
(25 27)
(28 26)
(27 29)
(30 28)
(29 31)
(32 30)
(31 33)
(34 32)
(33 35)
(36 34)
(35 37)
(38 36)
(37 39)
(40 38)
(39 41)
(42 40)
(41 43)
(44 42)
(43 45)
(46 44)
(45 47)
(48 46)
(47 49)
(50 48)
(49 51)
(52 50)
(51 53)
(54 52)
(53 55)
(56 54)
(55 57)
(58 56)
(57 59)
(60 58)
(59 61)
(62 60)
(61 63)
(64 62)
(63 65)
(66 64)
(65 67)
(68 66)
(67 69)
(70 68)
(69 71)
(72 70)
(71 73)
(74 72)
(73 75)
(76 74)
(75 77)
(78 76)
(77 79)
(80 78)
(79 81)
(82 80)
(81 83)
(84 82)
(83 85)
(86 84)
(85 87)
(88 86)
(87 89)
(90 88)
(89 91)
(92 90)
(91 93)
(94 92)
(93 95)
(96 94)
(95 97)
(98 96)
(97 99)
(100 98)
(99 101)
(102 100)
(101 103)
(104 102)
(103 105)
(106 104)
(105 107)
(108 106)
(107 109)
(110 108)
(109 111)
(112 110)
(111 113)
(114 112)
(113 115)
(116 114)
(115 117)
(118 116)
(117 119)
(120 118)
(119 121)
(122 120)
(121 123)
(124 122)
(123 125)
(126 124)
(125 127)
(128 126)
(127 129)
(130 128)
(129 131)
(132 130)
(131 133)
(134 132)
(133 135)
(136 134)
(135 137)
(138 136)
(137 139)
(140 138)
(139 141)
(142 140)
(141 143)
(144 142)
(143 145)
(146 144)
(145 147)
(148 146)
(147 149)
(150 148)
(149 151)
(152 150)
(151 153)
(154 152)
(153 155)
(156 154)
(155 157)
(158 156)
(157 159)
(160 158)
(159 161)
(162 160)
(161 163)
(164 162)
(163 165)
(166 164)
(165 167)
(168 166)
(167 169)
(170 168)
(169 171)
(172 170)
(171 173)
(174 172)
(173 175)
(176 174)
(175 177)
(178 176)
(177 179)
(180 178)
(179 181)
(182 180)
(181 183)
(184 182)
(183 185)
(186 184)
(185 187)
(188 186)
(187 189)
(190 188)
(189 191)
(192 190)
(191 193)
(194 192)
(193 195)
(196 194)
(195 197)
(198 196)
(197 199)
(200 198)
(199 201)
(202 200)
(201 203)
(204 202)
(203 205)
(206 204)
(205 207)
(208 206)
(207 209)
(210 208)
(209 211)
(212 210)
(211 213)
(214 212)
(213 215)
(216 214)
(215 217)
(218 216)
(217 219)
(220 218)
(219 221)
(222 220)
(221 223)
(224 222)
(223 225)
(226 224)
(225 227)
(228 226)
(227 229)
(230 228)
(229 231)
(232 230)
(231 233)
(234 232)
(233 235)
(236 234)
(235 237)
(238 236)
(237 239)
(240 238)
(239 241)
(242 240)
(241 243)
(244 242)
(243 245)
(246 244)
(245 247)
(248 246)
(247 249)
(250 248)
(249 251)
(252 250)
(251 253)
(254 252)
(253 255)
(0 254)
(255 1)
)

// concaveStart mixedStart nonFeatureStart
2 2 2
// internalStart flatStart openStart multipleStart
257 257 257 257
// normals

512
(
(-0.989212 0.146493 0)
(0 -0 1)
(-0.989212 0.146493 -2.86238e-19)
(0.989212 0.146493 0)
(0 0 -1)
(-0.989244 0.146274 0)
(0 0 1)
(-0.989244 0.146274 0)
(0 0 -1)
(-0.989246 0.14626 0)
(0 0 1)
(-0.989246 0.14626 0)
(0 0 -1)
(-0.989185 0.146673 0)
(0 0 1)
(-0.989185 0.146673 0)
(0 0 -1)
(-0.989236 0.146332 0)
(0 0 1)
(-0.989236 0.146332 0)
(0 0 -1)
(-0.989218 0.14645 0)
(0 0 1)
(-0.989218 0.14645 0)
(0 0 -1)
(-0.987213 0.159407 0)
(0 0 1)
(-0.987213 0.159407 0)
(0 0 -1)
(-0.984292 0.176546 0)
(0 0 1)
(-0.984292 0.176546 0)
(0 0 -1)
(-0.978864 0.204514 0)
(0 0 1)
(-0.978864 0.204514 0)
(0 0 -1)
(-0.974135 0.225968 0)
(0 0 1)
(-0.974135 0.225968 0)
(0 0 -1)
(-0.96929 0.245922 0)
(0 0 1)
(-0.96929 0.245922 0)
(0 0 -1)
(-0.965407 0.260747 0)
(0 0 1)
(-0.965407 0.260747 0)
(0 0 -1)
(-0.962982 0.269567 0)
(0 0 1)
(-0.962982 0.269567 0)
(0 0 -1)
(-0.96174 0.273965 0)
(0 0 1)
(-0.96174 0.273965 0)
(0 0 -1)
(-0.960792 0.277269 0)
(0 0 1)
(-0.960792 0.277269 0)
(0 0 -1)
(-0.959899 0.280345 0)
(0 0 1)
(-0.959899 0.280345 0)
(0 0 -1)
(-0.959657 0.281174 0)
(0 0 1)
(-0.959657 0.281174 0)
(0 0 -1)
(-0.960224 0.279229 0)
(0 0 1)
(-0.960224 0.279229 0)
(0 0 -1)
(-0.961771 0.273854 0)
(0 0 1)
(-0.961771 0.273854 0)
(0 0 -1)
(-0.964354 0.264615 0)
(0 0 1)
(-0.964354 0.264615 0)
(0 0 -1)
(-0.967694 0.252128 0)
(0 0 1)
(-0.967694 0.252128 0)
(0 0 -1)
(-0.971289 0.237901 0)
(0 0 1)
(-0.971289 0.237901 0)
(0 0 -1)
(-0.976104 0.217303 0)
(0 0 1)
(-0.976104 0.217303 0)
(0 0 -1)
(-0.980401 0.19701 0)
(0 0 1)
(-0.980401 0.19701 0)
(0 0 -1)
(-0.985464 0.169883 0)
(0 0 1)
(-0.985464 0.169883 0)
(0 0 -1)
(-0.990039 0.140794 0)
(0 0 1)
(-0.990039 0.140794 0)
(0 0 -1)
(-0.994944 0.100433 0)
(0 0 1)
(-0.994944 0.100433 0)
(0 0 -1)
(-0.997678 0.0681041 0)
(0 0 1)
(-0.997678 0.0681041 0)
(0 0 -1)
(-0.999083 0.0428239 0)
(0 0 1)
(-0.999083 0.0428239 0)
(0 0 -1)
(-0.999704 0.0243465 0)
(0 0 1)
(-0.999704 0.0243465 0)
(0 0 -1)
(-0.999963 0.00854742 0)
(0 0 1)
(-0.999963 0.00854742 0)
(0 0 -1)
(-0.999976 -0.00699503 -0)
(0 0 1)
(-0.999976 -0.00699503 0)
(0 0 -1)
(-0.999808 -0.0195739 -0)
(0 0 1)
(-0.999808 -0.0195739 0)
(-0 0 -1)
(-0.999471 -0.0325139 -0)
(0 0 1)
(-0.999471 -0.0325139 0)
(0 0 -1)
(-0.999061 -0.0433288 -0)
(0 0 1)
(-0.999061 -0.0433288 0)
(0 0 -1)
(-0.99847 -0.055289 -0)
(0 0 1)
(-0.99847 -0.055289 0)
(0 0 -1)
(-0.997875 -0.0651577 -0)
(0 0 1)
(-0.997875 -0.0651577 0)
(0 0 -1)
(-0.997113 -0.0759278 -0)
(0 0 1)
(-0.997113 -0.0759278 0)
(0 0 -1)
(-0.996357 -0.0852844 -0)
(0 0 1)
(-0.996357 -0.0852844 0)
(0 0 -1)
(-0.995493 -0.0948362 -0)
(0 0 1)
(-0.995493 -0.0948362 0)
(0 0 -1)
(-0.994513 -0.104614 -0)
(0 0 1)
(-0.994513 -0.104614 0)
(0 0 -1)
(-0.99354 -0.113482 -0)
(0 0 1)
(-0.99354 -0.113482 0)
(0 0 -1)
(-0.992289 -0.123942 -0)
(0 0 1)
(-0.992289 -0.123942 0)
(0 0 -1)
(-0.991046 -0.133523 -0)
(0 0 1)
(-0.991046 -0.133523 0)
(0 0 -1)
(-0.989704 -0.143129 -0)
(0 0 1)
(-0.989704 -0.143129 0)
(0 0 -1)
(-0.988161 -0.153422 -0)
(0 0 1)
(-0.988161 -0.153422 0)
(0 0 -1)
(-0.986206 -0.165524 -0)
(0 0 1)
(-0.986206 -0.165524 0)
(0 0 -1)
(-0.984212 -0.176991 -0)
(0 0 1)
(-0.984212 -0.176991 0)
(0 0 -1)
(-0.981858 -0.18962 -0)
(0 0 1)
(-0.981858 -0.18962 0)
(0 0 -1)
(-0.979231 -0.202749 -0)
(0 0 1)
(-0.979231 -0.202749 0)
(0 0 -1)
(-0.97619 -0.216917 -0)
(0 0 1)
(-0.97619 -0.216917 0)
(0 0 -1)
(-0.972814 -0.231589 -0)
(0 0 1)
(-0.972814 -0.231589 0)
(0 0 -1)
(-0.968935 -0.247315 -0)
(0 0 1)
(-0.968935 -0.247315 0)
(0 0 -1)
(-0.964221 -0.265101 -0)
(0 0 1)
(-0.964221 -0.265101 0)
(0 0 -1)
(-0.95824 -0.285965 -0)
(0 0 1)
(-0.95824 -0.285965 0)
(0 0 -1)
(-0.950628 -0.310334 -0)
(0 0 1)
(-0.950628 -0.310334 0)
(0 0 -1)
(-0.941131 -0.338043 -0)
(0 0 1)
(-0.941131 -0.338043 0)
(0 0 -1)
(-0.926311 -0.376761 -0)
(0 0 1)
(-0.926311 -0.376761 0)
(0 0 -1)
(-0.905462 -0.424427 -0)
(0 0 1)
(-0.905462 -0.424427 0)
(0 0 -1)
(-0.863753 -0.503916 -0)
(0 0 1)
(-0.863753 -0.503916 0)
(0 0 -1)
(-0.794023 -0.607887 -0)
(0 0 1)
(-0.794023 -0.607887 0)
(0 0 -1)
(-0.686081 -0.727525 -0)
(0 0 1)
(-0.686081 -0.727525 0)
(0 0 -1)
(-0.524989 -0.851109 -0)
(0 0 1)
(-0.524989 -0.851109 0)
(0 0 -1)
(-0.231301 -0.972882 -0)
(0 0 1)
(-0.231301 -0.972882 9.24285e-19)
(0 0 -1)
(0.231301 -0.972882 0)
(0 0 1)
(0.231301 -0.972882 9.24285e-19)
(0 -0 -1)
(0.524989 -0.851109 0)
(0 0 1)
(0.524989 -0.851109 0)
(0 0 -1)
(0.686081 -0.727525 0)
(0 0 1)
(0.686081 -0.727525 0)
(0 0 -1)
(0.794023 -0.607887 0)
(0 0 1)
(0.794023 -0.607887 0)
(0 0 -1)
(0.863753 -0.503916 0)
(0 0 1)
(0.863753 -0.503916 0)
(0 0 -1)
(0.905462 -0.424427 0)
(0 0 1)
(0.905462 -0.424427 0)
(0 0 -1)
(0.926311 -0.376761 0)
(0 0 1)
(0.926311 -0.376761 0)
(0 0 -1)
(0.941131 -0.338043 0)
(0 0 1)
(0.941131 -0.338043 0)
(0 0 -1)
(0.950628 -0.310334 0)
(0 0 1)
(0.950628 -0.310334 0)
(0 0 -1)
(0.95824 -0.285965 0)
(0 0 1)
(0.95824 -0.285965 0)
(0 0 -1)
(0.964221 -0.265101 0)
(0 0 1)
(0.964221 -0.265101 0)
(0 0 -1)
(0.968935 -0.247315 0)
(0 0 1)
(0.968935 -0.247315 0)
(0 0 -1)
(0.972814 -0.231589 0)
(0 0 1)
(0.972814 -0.231589 0)
(0 0 -1)
(0.97619 -0.216917 0)
(0 0 1)
(0.97619 -0.216917 0)
(0 0 -1)
(0.979231 -0.202749 0)
(0 0 1)
(0.979231 -0.202749 0)
(0 0 -1)
(0.981858 -0.18962 0)
(0 0 1)
(0.981858 -0.18962 0)
(0 0 -1)
(0.984212 -0.176991 0)
(0 0 1)
(0.984212 -0.176991 0)
(0 0 -1)
(0.986206 -0.165524 0)
(0 0 1)
(0.986206 -0.165524 0)
(0 0 -1)
(0.988161 -0.153422 0)
(0 0 1)
(0.988161 -0.153422 0)
(0 0 -1)
(0.989704 -0.143129 0)
(0 0 1)
(0.989704 -0.143129 0)
(0 0 -1)
(0.991046 -0.133523 0)
(0 0 1)
(0.991046 -0.133523 0)
(0 0 -1)
(0.992289 -0.123942 0)
(0 0 1)
(0.992289 -0.123942 0)
(0 0 -1)
(0.99354 -0.113482 0)
(0 0 1)
(0.99354 -0.113482 0)
(0 0 -1)
(0.994513 -0.104614 0)
(0 0 1)
(0.994513 -0.104614 0)
(0 0 -1)
(0.995493 -0.0948362 0)
(0 0 1)
(0.995493 -0.0948362 0)
(0 0 -1)
(0.996357 -0.0852844 0)
(0 0 1)
(0.996357 -0.0852844 0)
(0 0 -1)
(0.997113 -0.0759278 0)
(0 0 1)
(0.997113 -0.0759278 0)
(0 0 -1)
(0.997875 -0.0651577 0)
(0 0 1)
(0.997875 -0.0651577 0)
(0 0 -1)
(0.99847 -0.055289 0)
(0 0 1)
(0.99847 -0.055289 0)
(0 0 -1)
(0.999061 -0.0433288 0)
(0 0 1)
(0.999061 -0.0433288 0)
(0 0 -1)
(0.999471 -0.0325139 0)
(0 0 1)
(0.999471 -0.0325139 0)
(0 0 -1)
(0.999808 -0.0195739 0)
(-0 0 1)
(0.999808 -0.0195739 0)
(0 0 -1)
(0.999976 -0.00699503 0)
(0 0 1)
(0.999976 -0.00699503 0)
(0 0 -1)
(0.999963 0.00854742 0)
(0 0 1)
(0.999963 0.00854742 0)
(0 0 -1)
(0.999704 0.0243465 0)
(0 0 1)
(0.999704 0.0243465 0)
(0 0 -1)
(0.999083 0.0428239 0)
(0 0 1)
(0.999083 0.0428239 0)
(0 0 -1)
(0.997678 0.0681041 0)
(0 0 1)
(0.997678 0.0681041 0)
(0 0 -1)
(0.994944 0.100433 0)
(0 0 1)
(0.994944 0.100433 0)
(0 0 -1)
(0.990039 0.140794 0)
(0 0 1)
(0.990039 0.140794 0)
(0 0 -1)
(0.985464 0.169883 0)
(0 0 1)
(0.985464 0.169883 0)
(0 0 -1)
(0.980401 0.19701 0)
(0 0 1)
(0.980401 0.19701 0)
(0 0 -1)
(0.976104 0.217303 0)
(0 0 1)
(0.976104 0.217303 0)
(0 0 -1)
(0.971289 0.237901 0)
(0 0 1)
(0.971289 0.237901 0)
(0 0 -1)
(0.967694 0.252128 0)
(0 0 1)
(0.967694 0.252128 0)
(0 0 -1)
(0.964354 0.264615 0)
(0 0 1)
(0.964354 0.264615 0)
(0 0 -1)
(0.961771 0.273854 0)
(0 0 1)
(0.961771 0.273854 0)
(0 0 -1)
(0.960224 0.279229 0)
(0 0 1)
(0.960224 0.279229 0)
(0 0 -1)
(0.959657 0.281174 0)
(0 0 1)
(0.959657 0.281174 0)
(0 0 -1)
(0.959899 0.280345 0)
(0 0 1)
(0.959899 0.280345 0)
(0 0 -1)
(0.960792 0.277269 0)
(0 0 1)
(0.960792 0.277269 0)
(0 0 -1)
(0.96174 0.273965 0)
(0 0 1)
(0.96174 0.273965 0)
(0 0 -1)
(0.962982 0.269567 0)
(0 0 1)
(0.962982 0.269567 0)
(0 0 -1)
(0.965407 0.260747 0)
(0 0 1)
(0.965407 0.260747 0)
(0 0 -1)
(0.96929 0.245922 0)
(0 0 1)
(0.96929 0.245922 0)
(0 0 -1)
(0.974135 0.225968 0)
(0 0 1)
(0.974135 0.225968 0)
(0 0 -1)
(0.978864 0.204514 0)
(0 0 1)
(0.978864 0.204514 0)
(0 0 -1)
(0.984292 0.176546 0)
(0 0 1)
(0.984292 0.176546 0)
(0 0 -1)
(0.987213 0.159407 0)
(0 0 1)
(0.987213 0.159407 0)
(0 0 -1)
(0.989218 0.14645 0)
(0 0 1)
(0.989218 0.14645 0)
(0 0 -1)
(0.989236 0.146332 0)
(0 0 1)
(0.989236 0.146332 0)
(0 0 -1)
(0.989185 0.146673 0)
(0 0 1)
(0.989185 0.146673 0)
(0 0 -1)
(0.989246 0.14626 0)
(0 0 1)
(0.989246 0.14626 0)
(0 0 -1)
(0.989244 0.146274 0)
(0 0 1)
(0.989244 0.146274 0)
(0 0 -1)
(0 0 1)
(0.989212 0.146493 -2.86238e-19)
(0 0 -1)
)

// normal volume types

512
(
0
0
0
0
0
0
0
0
0
0
0
0
0
0
0
0
0
0
0
0
0
0
0
0
0
0
0
0
0
0
0
0
0
0
0
0
0
0
0
0
0
0
0
0
0
0
0
0
0
0
0
0
0
0
0
0
0
0
0
0
0
0
0
0
0
0
0
0
0
0
0
0
0
0
0
0
0
0
0
0
0
0
0
0
0
0
0
0
0
0
0
0
0
0
0
0
0
0
0
0
0
0
0
0
0
0
0
0
0
0
0
0
0
0
0
0
0
0
0
0
0
0
0
0
0
0
0
0
0
0
0
0
0
0
0
0
0
0
0
0
0
0
0
0
0
0
0
0
0
0
0
0
0
0
0
0
0
0
0
0
0
0
0
0
0
0
0
0
0
0
0
0
0
0
0
0
0
0
0
0
0
0
0
0
0
0
0
0
0
0
0
0
0
0
0
0
0
0
0
0
0
0
0
0
0
0
0
0
0
0
0
0
0
0
0
0
0
0
0
0
0
0
0
0
0
0
0
0
0
0
0
0
0
0
0
0
0
0
0
0
0
0
0
0
0
0
0
0
0
0
0
0
0
0
0
0
0
0
0
0
0
0
0
0
0
0
0
0
0
0
0
0
0
0
0
0
0
0
0
0
0
0
0
0
0
0
0
0
0
0
0
0
0
0
0
0
0
0
0
0
0
0
0
0
0
0
0
0
0
0
0
0
0
0
0
0
0
0
0
0
0
0
0
0
0
0
0
0
0
0
0
0
0
0
0
0
0
0
0
0
0
0
0
0
0
0
0
0
0
0
0
0
0
0
0
0
0
0
0
0
0
0
0
0
0
0
0
0
0
0
0
0
0
0
0
0
0
0
0
0
0
0
0
0
0
0
0
0
0
0
0
0
0
0
0
0
0
0
0
0
0
0
0
0
0
0
0
0
0
0
0
0
0
0
0
0
0
0
0
0
0
0
0
0
0
0
0
0
0
0
0
0
0
0
0
0
0
0
0
0
0
0
0
0
0
0
0
0
0
0
0
0
0
0
0
0
0
0
0
0
0
0
0
0
0
0
0
0
0
0
0
0
0
0
0
0
0
0
0
0
0
0
0
0
0
0
0
0
0
0
0
0
0
0
0
0
0
0
0
0
0
0
0
0
0
0
0
0
0
0
0
0
)

// normalDirections

257
(
2(1 -1)
2(1 -1)
2(1 -1)
2(1 -1)
2(1 -1)
2(1 -1)
2(1 -1)
2(1 -1)
2(1 -1)
2(1 -1)
2(1 -1)
2(1 -1)
2(1 -1)
2(1 -1)
2(1 -1)
2(1 -1)
2(1 -1)
2(1 -1)
2(1 -1)
2(1 -1)
2(1 -1)
2(1 -1)
2(1 -1)
2(1 -1)
2(1 -1)
2(1 -1)
2(1 -1)
2(1 -1)
2(1 -1)
2(1 -1)
2(1 -1)
2(1 -1)
2(1 -1)
2(1 -1)
2(1 -1)
2(1 -1)
2(1 -1)
2(1 -1)
2(1 -1)
2(1 -1)
2(1 -1)
2(1 -1)
2(1 -1)
2(1 -1)
2(1 -1)
2(1 -1)
2(1 -1)
2(1 -1)
2(1 -1)
2(1 -1)
2(1 -1)
2(1 -1)
2(1 -1)
2(1 -1)
2(1 -1)
2(1 -1)
2(1 -1)
2(1 -1)
2(1 -1)
2(1 -1)
2(1 -1)
2(1 -1)
2(1 -1)
2(1 -1)
2(1 -1)
2(1 -1)
2(1 -1)
2(1 -1)
2(1 -1)
2(1 -1)
2(1 -1)
2(1 -1)
2(1 -1)
2(1 -1)
2(1 -1)
2(1 -1)
2(1 -1)
2(1 -1)
2(1 -1)
2(1 -1)
2(1 -1)
2(1 -1)
2(1 -1)
2(1 -1)
2(1 -1)
2(1 -1)
2(1 -1)
2(1 -1)
2(1 -1)
2(1 -1)
2(1 -1)
2(1 -1)
2(1 -1)
2(1 -1)
2(1 -1)
2(1 -1)
2(1 -1)
2(1 -1)
2(1 -1)
2(1 -1)
2(1 -1)
2(1 -1)
2(1 -1)
2(1 -1)
2(1 -1)
2(1 -1)
2(1 -1)
2(1 -1)
2(1 -1)
2(1 -1)
2(1 -1)
2(1 -1)
2(1 -1)
2(1 -1)
2(1 -1)
2(1 -1)
2(1 -1)
2(1 -1)
2(1 -1)
2(1 -1)
2(1 -1)
2(1 -1)
2(1 -1)
2(1 -1)
2(1 -1)
2(1 -1)
2(1 -1)
2(1 -1)
2(1 -1)
2(1 -1)
2(1 -1)
2(1 -1)
2(1 -1)
2(1 -1)
2(1 -1)
2(1 -1)
2(1 -1)
2(1 -1)
2(1 -1)
2(1 -1)
2(1 -1)
2(1 -1)
2(1 -1)
2(1 -1)
2(1 -1)
2(1 -1)
2(1 -1)
2(1 -1)
2(1 -1)
2(1 -1)
2(1 -1)
2(1 -1)
2(1 -1)
2(1 -1)
2(1 -1)
2(1 -1)
2(1 -1)
2(1 -1)
2(1 -1)
2(1 -1)
2(1 -1)
2(1 -1)
2(1 -1)
2(1 -1)
2(1 -1)
2(1 -1)
2(1 -1)
2(1 -1)
2(1 -1)
2(1 -1)
2(1 -1)
2(1 -1)
2(1 -1)
2(1 -1)
2(1 -1)
2(1 -1)
2(1 -1)
2(1 -1)
2(1 -1)
2(1 -1)
2(1 -1)
2(1 -1)
2(1 -1)
2(1 -1)
2(1 -1)
2(1 -1)
2(1 -1)
2(1 -1)
2(1 -1)
2(1 -1)
2(1 -1)
2(1 -1)
2(1 -1)
2(1 -1)
2(1 -1)
2(1 -1)
2(1 -1)
2(1 -1)
2(1 -1)
2(1 -1)
2(1 -1)
2(1 -1)
2(1 -1)
2(1 -1)
2(1 -1)
2(1 -1)
2(1 -1)
2(1 -1)
2(1 -1)
2(1 -1)
2(1 -1)
2(1 -1)
2(1 -1)
2(1 -1)
2(1 -1)
2(1 -1)
2(1 -1)
2(1 -1)
2(1 -1)
2(1 -1)
2(1 -1)
2(1 -1)
2(1 -1)
2(1 -1)
2(1 -1)
2(1 -1)
2(1 -1)
2(1 -1)
2(1 -1)
2(1 -1)
2(1 -1)
2(1 -1)
2(1 -1)
2(1 -1)
2(1 -1)
2(1 -1)
2(1 -1)
2(1 -1)
2(1 -1)
2(1 -1)
2(1 -1)
2(1 -1)
2(1 -1)
2(1 -1)
2(1 -1)
2(1 -1)
2(1 -1)
2(1 -1)
2(1 -1)
2(1 -1)
2(1 -1)
2(1 -1)
2(1 -1)
2(1 -1)
2(1 -1)
2(1 -1)
2(1 -1)
)

// edgeNormals

257
(
2(0 1)
2(2 3)
2(2 4)
2(5 6)
2(7 8)
2(9 10)
2(11 12)
2(13 14)
2(15 16)
2(17 18)
2(19 20)
2(21 22)
2(23 24)
2(25 26)
2(27 28)
2(29 30)
2(31 32)
2(33 34)
2(35 36)
2(37 38)
2(39 40)
2(41 42)
2(43 44)
2(45 46)
2(47 48)
2(49 50)
2(51 52)
2(53 54)
2(55 56)
2(57 58)
2(59 60)
2(61 62)
2(63 64)
2(65 66)
2(67 68)
2(69 70)
2(71 72)
2(73 74)
2(75 76)
2(77 78)
2(79 80)
2(81 82)
2(83 84)
2(85 86)
2(87 88)
2(89 90)
2(91 92)
2(93 94)
2(95 96)
2(97 98)
2(99 100)
2(101 102)
2(103 104)
2(105 106)
2(107 108)
2(109 110)
2(111 112)
2(113 114)
2(115 116)
2(117 118)
2(119 120)
2(121 122)
2(123 124)
2(125 126)
2(127 128)
2(129 130)
2(131 132)
2(133 134)
2(135 136)
2(137 138)
2(139 140)
2(141 142)
2(143 144)
2(145 146)
2(147 148)
2(149 150)
2(151 152)
2(153 154)
2(155 156)
2(157 158)
2(159 160)
2(161 162)
2(163 164)
2(165 166)
2(167 168)
2(169 170)
2(171 172)
2(173 174)
2(175 176)
2(177 178)
2(179 180)
2(181 182)
2(183 184)
2(185 186)
2(187 188)
2(189 190)
2(191 192)
2(193 194)
2(195 196)
2(197 198)
2(199 200)
2(201 202)
2(203 204)
2(205 206)
2(207 208)
2(209 210)
2(211 212)
2(213 214)
2(215 216)
2(217 218)
2(219 220)
2(221 222)
2(223 224)
2(225 226)
2(227 228)
2(229 230)
2(231 232)
2(233 234)
2(235 236)
2(237 238)
2(239 240)
2(241 242)
2(243 244)
2(245 246)
2(247 248)
2(249 250)
2(251 252)
2(253 254)
2(255 256)
2(257 258)
2(259 260)
2(261 262)
2(263 264)
2(265 266)
2(267 268)
2(269 270)
2(271 272)
2(273 274)
2(275 276)
2(277 278)
2(279 280)
2(281 282)
2(283 284)
2(285 286)
2(287 288)
2(289 290)
2(291 292)
2(293 294)
2(295 296)
2(297 298)
2(299 300)
2(301 302)
2(303 304)
2(305 306)
2(307 308)
2(309 310)
2(311 312)
2(313 314)
2(315 316)
2(317 318)
2(319 320)
2(321 322)
2(323 324)
2(325 326)
2(327 328)
2(329 330)
2(331 332)
2(333 334)
2(335 336)
2(337 338)
2(339 340)
2(341 342)
2(343 344)
2(345 346)
2(347 348)
2(349 350)
2(351 352)
2(353 354)
2(355 356)
2(357 358)
2(359 360)
2(361 362)
2(363 364)
2(365 366)
2(367 368)
2(369 370)
2(371 372)
2(373 374)
2(375 376)
2(377 378)
2(379 380)
2(381 382)
2(383 384)
2(385 386)
2(387 388)
2(389 390)
2(391 392)
2(393 394)
2(395 396)
2(397 398)
2(399 400)
2(401 402)
2(403 404)
2(405 406)
2(407 408)
2(409 410)
2(411 412)
2(413 414)
2(415 416)
2(417 418)
2(419 420)
2(421 422)
2(423 424)
2(425 426)
2(427 428)
2(429 430)
2(431 432)
2(433 434)
2(435 436)
2(437 438)
2(439 440)
2(441 442)
2(443 444)
2(445 446)
2(447 448)
2(449 450)
2(451 452)
2(453 454)
2(455 456)
2(457 458)
2(459 460)
2(461 462)
2(463 464)
2(465 466)
2(467 468)
2(469 470)
2(471 472)
2(473 474)
2(475 476)
2(477 478)
2(479 480)
2(481 482)
2(483 484)
2(485 486)
2(487 488)
2(489 490)
2(491 492)
2(493 494)
2(495 496)
2(497 498)
2(499 500)
2(501 502)
2(503 504)
2(505 506)
2(507 508)
2(3 509)
2(510 511)
)

// featurePointNormals

2
(
3(0 1 3)
3(2 3 4)
)

// featurePointEdges

2
(
3(1 255 0)
3(1 256 2)
)

// regionEdges
0()


// ************************************************************************* //
