/*--------------------------------*- C++ -*----------------------------------*\
| =========                 |                                                 |
| \\      /  F ield         | OpenFOAM: The Open Source CFD Toolbox           |
|  \\    /   O peration     | Version:  2412                                  |
|   \\  /    A nd           | Website:  www.openfoam.com                      |
|    \\/     M anipulation  |                                                 |
\*---------------------------------------------------------------------------*/
FoamFile
{
    version     2.0;
    format      ascii;
    arch        "LSB;label=32;scalar=64";
    class       polyBoundaryMesh;
    location    "constant/polyMesh";
    object      boundary;
}
// * * * * * * * * * * * * * * * * * * * * * * * * * * * * * * * * * * * * * //

6
(
    top
    {
        type            patch;
        nFaces          308;
        startFace       30412;
    }
    inlet
    {
        type            patch;
        nFaces          80;
        startFace       30720;
    }
    outlet
    {
        type            patch;
        nFaces          80;
        startFace       30800;
    }
    plate
    {
        type            wall;
        inGroups        1(wall);
        nFaces          308;
        startFace       30880;
    }
    front
    {
        type            cyclic;
        inGroups        1(cyclic);
        nFaces          6160;
        startFace       31188;
        matchTolerance  0.0001;
        transform       unknown;
        neighbourPatch  back;
    }
    back
    {
        type            cyclic;
        inGroups        1(cyclic);
        nFaces          6160;
        startFace       37348;
        matchTolerance  0.0001;
        transform       unknown;
        neighbourPatch  front;
    }
)

// ************************************************************************* //
